
     RDKit          3D

 35 37  0  0  0  0  0  0  0  0999 V2000
    5.4144    1.3701    2.2510 C   0  0  0  0  0  0  0  0  0  0  0  0
    4.0082    1.5409    2.1138 O   0  0  0  0  0  0  0  0  0  0  0  0
    3.3547    0.6587    1.2983 C   0  0  0  0  0  0  0  0  0  0  0  0
    3.9436   -0.3820    0.5770 C   0  0  0  0  0  0  0  0  0  0  0  0
    3.1528   -1.2098   -0.2208 C   0  0  0  0  0  0  0  0  0  0  0  0
    3.7981   -2.2081   -0.9000 O   0  0  0  0  0  0  0  0  0  0  0  0
    1.7740   -1.0030   -0.3019 C   0  0  0  0  0  0  0  0  0  0  0  0
    0.9128   -1.8495   -1.1290 C   0  0  0  0  0  0  0  0  0  0  0  0
    1.3629   -2.7779   -1.7968 O   0  0  0  0  0  0  0  0  0  0  0  0
   -0.5371   -1.5476   -1.1386 C   0  0  0  0  0  0  0  0  0  0  0  0
   -1.3414   -2.3419   -1.9339 O   0  0  0  0  0  0  0  0  0  0  0  0
   -0.9834   -0.5184   -0.3948 C   0  0  0  0  0  0  0  0  0  0  0  0
   -2.4060   -0.1187   -0.3348 C   0  0  0  0  0  0  0  0  0  0  0  0
   -3.4248   -1.0612   -0.1041 C   0  0  0  0  0  0  0  0  0  0  0  0
   -4.7633   -0.6665   -0.0228 C   0  0  0  0  0  0  0  0  0  0  0  0
   -5.0826    0.6738   -0.1653 C   0  0  0  0  0  0  0  0  0  0  0  0
   -6.3890    1.0610   -0.0845 O   0  0  0  0  0  0  0  0  0  0  0  0
   -4.0882    1.6218   -0.3857 C   0  0  0  0  0  0  0  0  0  0  0  0
   -4.4742    2.9282   -0.5139 O   0  0  0  0  0  0  0  0  0  0  0  0
   -2.7531    1.2377   -0.4682 C   0  0  0  0  0  0  0  0  0  0  0  0
   -0.1610    0.2942    0.3772 O   0  0  0  0  0  0  0  0  0  0  0  0
    1.1846    0.0318    0.4134 C   0  0  0  0  0  0  0  0  0  0  0  0
    1.9728    0.8610    1.2120 C   0  0  0  0  0  0  0  0  0  0  0  0
    5.9235    1.5075    1.2913 H   0  0  0  0  0  0  0  0  0  0  0  0
    5.7793    2.1422    2.9352 H   0  0  0  0  0  0  0  0  0  0  0  0
    5.6526    0.3958    2.6903 H   0  0  0  0  0  0  0  0  0  0  0  0
    5.0106   -0.5757    0.6127 H   0  0  0  0  0  0  0  0  0  0  0  0
    3.1338   -2.7127   -1.4203 H   0  0  0  0  0  0  0  0  0  0  0  0
   -0.7354   -2.9822   -2.3624 H   0  0  0  0  0  0  0  0  0  0  0  0
   -3.1846   -2.1157    0.0152 H   0  0  0  0  0  0  0  0  0  0  0  0
   -5.5453   -1.3992    0.1508 H   0  0  0  0  0  0  0  0  0  0  0  0
   -6.3655    2.0298   -0.2148 H   0  0  0  0  0  0  0  0  0  0  0  0
   -3.6783    3.4667   -0.6644 H   0  0  0  0  0  0  0  0  0  0  0  0
   -1.9779    1.9786   -0.6395 H   0  0  0  0  0  0  0  0  0  0  0  0
    1.5126    1.6703    1.7744 H   0  0  0  0  0  0  0  0  0  0  0  0
  1  2  1  0
  2  3  1  0
  3  4  2  0
  4  5  1  0
  5  6  1  0
  5  7  2  0
  7  8  1  0
  8  9  2  0
  8 10  1  0
 10 11  1  0
 10 12  2  0
 12 13  1  0
 13 14  1  0
 14 15  2  0
 15 16  1  0
 16 17  1  0
 16 18  2  0
 18 19  1  0
 18 20  1  0
 12 21  1  0
 21 22  1  0
 22 23  2  0
 23  3  1  0
 22  7  1  0
 20 13  2  0
  1 24  1  0
  1 25  1  0
  1 26  1  0
  4 27  1  0
  6 28  1  0
 11 29  1  0
 14 30  1  0
 15 31  1  0
 17 32  1  0
 19 33  1  0
 20 34  1  0
 23 35  1  0
M  END
$$$$
