
     RDKit          3D

 25 27  0  0  0  0  0  0  0  0999 V2000
   -4.4296   -0.0984    0.5887 C   0  0  0  0  0  0  0  0  0  0  0  0
   -3.7637   -1.2632    0.2191 C   0  0  0  0  0  0  0  0  0  0  0  0
   -2.3830   -1.2396    0.0071 C   0  0  0  0  0  0  0  0  0  0  0  0
   -1.6449   -0.0552    0.1600 C   0  0  0  0  0  0  0  0  0  0  0  0
   -0.1948   -0.0841   -0.0749 C   0  0  0  0  0  0  0  0  0  0  0  0
    0.5094   -1.1472   -0.4274 N   0  0  0  0  0  0  0  0  0  0  0  0
    1.8118   -0.7307   -0.5378 C   0  0  0  0  0  0  0  0  0  0  0  0
    2.9615   -1.4547   -0.8834 C   0  0  0  0  0  0  0  0  0  0  0  0
    4.1902   -0.7830   -0.9243 C   0  0  0  0  0  0  0  0  0  0  0  0
    4.2707    0.5801   -0.6272 C   0  0  0  0  0  0  0  0  0  0  0  0
    3.1326    1.3181   -0.2802 C   0  0  0  0  0  0  0  0  0  0  0  0
    1.9229    0.6215   -0.2480 C   0  0  0  0  0  0  0  0  0  0  0  0
    0.6397    1.0064    0.0415 N   0  0  0  0  0  0  0  0  0  0  0  0
   -2.3324    1.1098    0.5330 C   0  0  0  0  0  0  0  0  0  0  0  0
   -3.7155    1.0870    0.7456 C   0  0  0  0  0  0  0  0  0  0  0  0
   -5.5037   -0.1151    0.7540 H   0  0  0  0  0  0  0  0  0  0  0  0
   -4.3137   -2.1923    0.0946 H   0  0  0  0  0  0  0  0  0  0  0  0
   -1.8756   -2.1594   -0.2819 H   0  0  0  0  0  0  0  0  0  0  0  0
    2.8900   -2.5119   -1.1124 H   0  0  0  0  0  0  0  0  0  0  0  0
    5.0902   -1.3321   -1.1908 H   0  0  0  0  0  0  0  0  0  0  0  0
    5.2376    1.0780   -0.6663 H   0  0  0  0  0  0  0  0  0  0  0  0
    3.1961    2.3757   -0.0499 H   0  0  0  0  0  0  0  0  0  0  0  0
    0.3567    1.9382    0.2978 H   0  0  0  0  0  0  0  0  0  0  0  0
   -1.8168    2.0552    0.6667 H   0  0  0  0  0  0  0  0  0  0  0  0
   -4.2358    1.9969    1.0344 H   0  0  0  0  0  0  0  0  0  0  0  0
  1  2  2  0
  2  3  1  0
  3  4  2  0
  4  5  1  0
  5  6  2  0
  6  7  1  0
  7  8  2  0
  8  9  1  0
  9 10  2  0
 10 11  1  0
 11 12  2  0
 12 13  1  0
  4 14  1  0
 14 15  2  0
 15  1  1  0
 13  5  1  0
 12  7  1  0
  1 16  1  0
  2 17  1  0
  3 18  1  0
  8 19  1  0
  9 20  1  0
 10 21  1  0
 11 22  1  0
 13 23  1  0
 14 24  1  0
 15 25  1  0
M  END
$$$$
