
     RDKit          3D

 26 28  0  0  0  0  0  0  0  0999 V2000
    5.2963   -0.8542   -0.3172 O   0  0  0  0  0  0  0  0  0  0  0  0
    4.0703   -0.3397   -0.0015 C   0  0  0  0  0  0  0  0  0  0  0  0
    3.9533    0.7741    0.8307 C   0  0  0  0  0  0  0  0  0  0  0  0
    2.6948    1.2981    1.1517 C   0  0  0  0  0  0  0  0  0  0  0  0
    1.5878    0.6501    0.5986 C   0  0  0  0  0  0  0  0  0  0  0  0
    0.2392    0.8788    0.6918 N   0  0  0  0  0  0  0  0  0  0  0  0
   -0.4306   -0.0638   -0.0574 C   0  0  0  0  0  0  0  0  0  0  0  0
   -1.8912   -0.1362   -0.1977 C   0  0  0  0  0  0  0  0  0  0  0  0
   -2.7623    0.7645    0.4341 C   0  0  0  0  0  0  0  0  0  0  0  0
   -4.1477    0.6544    0.2696 C   0  0  0  0  0  0  0  0  0  0  0  0
   -4.6812   -0.3557   -0.5273 C   0  0  0  0  0  0  0  0  0  0  0  0
   -3.8319   -1.2576   -1.1612 C   0  0  0  0  0  0  0  0  0  0  0  0
   -2.4489   -1.1471   -0.9965 C   0  0  0  0  0  0  0  0  0  0  0  0
    0.4409   -0.8824   -0.6232 N   0  0  0  0  0  0  0  0  0  0  0  0
    1.6861   -0.4586   -0.2309 C   0  0  0  0  0  0  0  0  0  0  0  0
    2.9511   -0.9729   -0.5442 C   0  0  0  0  0  0  0  0  0  0  0  0
    5.9811   -0.3244    0.1220 H   0  0  0  0  0  0  0  0  0  0  0  0
    4.8372    1.2528    1.2431 H   0  0  0  0  0  0  0  0  0  0  0  0
    2.5924    2.1632    1.7974 H   0  0  0  0  0  0  0  0  0  0  0  0
   -0.1898    1.6186    1.2237 H   0  0  0  0  0  0  0  0  0  0  0  0
   -2.3912    1.5664    1.0639 H   0  0  0  0  0  0  0  0  0  0  0  0
   -4.8114    1.3589    0.7648 H   0  0  0  0  0  0  0  0  0  0  0  0
   -5.7573   -0.4405   -0.6545 H   0  0  0  0  0  0  0  0  0  0  0  0
   -4.2401   -2.0488   -1.7847 H   0  0  0  0  0  0  0  0  0  0  0  0
   -1.7968   -1.8606   -1.4991 H   0  0  0  0  0  0  0  0  0  0  0  0
    3.0499   -1.8373   -1.1896 H   0  0  0  0  0  0  0  0  0  0  0  0
  1  2  1  0
  2  3  2  0
  3  4  1  0
  4  5  2  0
  5  6  1  0
  6  7  1  0
  7  8  1  0
  8  9  2  0
  9 10  1  0
 10 11  2  0
 11 12  1  0
 12 13  2  0
  7 14  2  0
 14 15  1  0
 15 16  2  0
 16  2  1  0
 15  5  1  0
 13  8  1  0
  1 17  1  0
  3 18  1  0
  4 19  1  0
  6 20  1  0
  9 21  1  0
 10 22  1  0
 11 23  1  0
 12 24  1  0
 13 25  1  0
 16 26  1  0
M  END
$$$$
