
     RDKit          3D

 41 45  0  0  0  0  0  0  0  0999 V2000
    8.0956    1.2313    0.0384 C   0  0  0  0  0  0  0  0  0  0  0  0
    6.6933    0.7119    0.0095 C   0  0  0  0  0  0  0  0  0  0  0  0
    6.4199   -0.6461    0.1780 C   0  0  0  0  0  0  0  0  0  0  0  0
    5.0994   -1.0883    0.1791 C   0  0  0  0  0  0  0  0  0  0  0  0
    4.0864   -0.1522    0.0213 C   0  0  0  0  0  0  0  0  0  0  0  0
    2.6797   -0.5417    0.0124 C   0  0  0  0  0  0  0  0  0  0  0  0
    2.1683   -1.7547    0.1395 N   0  0  0  0  0  0  0  0  0  0  0  0
    0.8064   -1.5957    0.0661 C   0  0  0  0  0  0  0  0  0  0  0  0
   -0.2123   -2.5556    0.1413 C   0  0  0  0  0  0  0  0  0  0  0  0
   -1.5452   -2.1329    0.0365 C   0  0  0  0  0  0  0  0  0  0  0  0
   -1.8624   -0.7771   -0.1370 C   0  0  0  0  0  0  0  0  0  0  0  0
   -3.2754   -0.3676   -0.2535 C   0  0  0  0  0  0  0  0  0  0  0  0
   -3.9934   -0.4570   -1.5124 C   0  0  0  0  0  0  0  0  0  0  0  0
   -5.2739   -0.0984   -1.6588 C   0  0  0  0  0  0  0  0  0  0  0  0
   -6.0224    0.4202   -0.4947 C   0  0  0  0  0  0  0  0  0  0  0  0
   -7.2603    0.7753   -0.6109 N   0  0  0  0  0  0  0  0  0  0  0  0
   -7.8984    1.2483    0.5055 C   0  0  0  0  0  0  0  0  0  0  0  0
   -9.0723    1.6074    0.4871 O   0  0  0  0  0  0  0  0  0  0  0  0
   -7.1912    1.3219    1.6890 N   0  0  0  0  0  0  0  0  0  0  0  0
   -5.8879    0.9644    1.8753 N   0  0  0  0  0  0  0  0  0  0  0  0
   -5.2852    0.5160    0.8180 C   0  0  0  0  0  0  0  0  0  0  0  0
   -3.8715    0.0891    0.8604 C   0  0  0  0  0  0  0  0  0  0  0  0
   -0.8486    0.1939   -0.2179 C   0  0  0  0  0  0  0  0  0  0  0  0
    0.4687   -0.2596   -0.1098 C   0  0  0  0  0  0  0  0  0  0  0  0
    1.6751    0.3859   -0.1410 N   0  0  0  0  0  0  0  0  0  0  0  0
    4.3156    1.1785   -0.1308 N   0  0  0  0  0  0  0  0  0  0  0  0
    5.6098    1.5739   -0.1272 C   0  0  0  0  0  0  0  0  0  0  0  0
    8.3805    1.4859    1.0639 H   0  0  0  0  0  0  0  0  0  0  0  0
    8.7970    0.4842   -0.3478 H   0  0  0  0  0  0  0  0  0  0  0  0
    8.1947    2.1240   -0.5882 H   0  0  0  0  0  0  0  0  0  0  0  0
    7.2256   -1.3643    0.3082 H   0  0  0  0  0  0  0  0  0  0  0  0
    4.8642   -2.1409    0.3033 H   0  0  0  0  0  0  0  0  0  0  0  0
    0.0360   -3.6024    0.2776 H   0  0  0  0  0  0  0  0  0  0  0  0
   -2.3357   -2.8787    0.0945 H   0  0  0  0  0  0  0  0  0  0  0  0
   -3.4439   -0.8375   -2.3715 H   0  0  0  0  0  0  0  0  0  0  0  0
   -5.7989   -0.1694   -2.6035 H   0  0  0  0  0  0  0  0  0  0  0  0
   -7.6955    1.6757    2.4940 H   0  0  0  0  0  0  0  0  0  0  0  0
   -3.3689    0.1660    1.8181 H   0  0  0  0  0  0  0  0  0  0  0  0
   -1.0748    1.2459   -0.3589 H   0  0  0  0  0  0  0  0  0  0  0  0
    1.8447    1.3754   -0.2545 H   0  0  0  0  0  0  0  0  0  0  0  0
    5.7572    2.6451   -0.2415 H   0  0  0  0  0  0  0  0  0  0  0  0
  1  2  1  0
  2  3  2  0
  3  4  1  0
  4  5  2  0
  5  6  1  0
  6  7  2  0
  7  8  1  0
  8  9  2  0
  9 10  1  0
 10 11  2  0
 11 12  1  0
 12 13  1  0
 13 14  2  0
 14 15  1  0
 15 16  2  0
 16 17  1  0
 17 18  2  0
 17 19  1  0
 19 20  1  0
 20 21  2  0
 21 22  1  0
 11 23  1  0
 23 24  2  0
 24 25  1  0
  5 26  1  0
 26 27  2  0
 27  2  1  0
 25  6  1  0
 24  8  1  0
 22 12  2  0
 21 15  1  0
  1 28  1  0
  1 29  1  0
  1 30  1  0
  3 31  1  0
  4 32  1  0
  9 33  1  0
 10 34  1  0
 13 35  1  0
 14 36  1  0
 19 37  1  0
 22 38  1  0
 23 39  1  0
 25 40  1  0
 27 41  1  0
M  END
$$$$
