
     RDKit          3D

 25 27  0  0  0  0  0  0  0  0999 V2000
    5.7503    0.1551    1.4620 Cl  0  0  0  0  0  0  0  0  0  0  0  0
    4.2397   -0.1365    0.6850 C   0  0  0  0  0  0  0  0  0  0  0  0
    4.2071   -0.9168   -0.4743 C   0  0  0  0  0  0  0  0  0  0  0  0
    3.0013   -1.1777   -1.1362 C   0  0  0  0  0  0  0  0  0  0  0  0
    1.8521   -0.6187   -0.5746 C   0  0  0  0  0  0  0  0  0  0  0  0
    0.5306   -0.6598   -0.9387 N   0  0  0  0  0  0  0  0  0  0  0  0
   -0.2086    0.0690   -0.0325 C   0  0  0  0  0  0  0  0  0  0  0  0
   -1.6649    0.2519   -0.0966 C   0  0  0  0  0  0  0  0  0  0  0  0
   -2.4587   -0.3100   -1.1082 C   0  0  0  0  0  0  0  0  0  0  0  0
   -3.8433   -0.1071   -1.1265 C   0  0  0  0  0  0  0  0  0  0  0  0
   -4.4529    0.6588   -0.1358 C   0  0  0  0  0  0  0  0  0  0  0  0
   -3.6808    1.2235    0.8749 C   0  0  0  0  0  0  0  0  0  0  0  0
   -2.2986    1.0206    0.8925 C   0  0  0  0  0  0  0  0  0  0  0  0
    0.5930    0.5710    0.8925 N   0  0  0  0  0  0  0  0  0  0  0  0
    1.8619    0.1587    0.5751 C   0  0  0  0  0  0  0  0  0  0  0  0
    3.0749    0.4126    1.2282 C   0  0  0  0  0  0  0  0  0  0  0  0
    5.1305   -1.3310   -0.8737 H   0  0  0  0  0  0  0  0  0  0  0  0
    2.9708   -1.7825   -2.0359 H   0  0  0  0  0  0  0  0  0  0  0  0
    0.1625   -1.1459   -1.7406 H   0  0  0  0  0  0  0  0  0  0  0  0
   -2.0272   -0.9135   -1.9001 H   0  0  0  0  0  0  0  0  0  0  0  0
   -4.4468   -0.5481   -1.9160 H   0  0  0  0  0  0  0  0  0  0  0  0
   -5.5284    0.8158   -0.1509 H   0  0  0  0  0  0  0  0  0  0  0  0
   -4.1491    1.8225    1.6516 H   0  0  0  0  0  0  0  0  0  0  0  0
   -1.7080    1.4694    1.6905 H   0  0  0  0  0  0  0  0  0  0  0  0
    3.0926    1.0184    2.1263 H   0  0  0  0  0  0  0  0  0  0  0  0
  1  2  1  0
  2  3  2  0
  3  4  1  0
  4  5  2  0
  5  6  1  0
  6  7  1  0
  7  8  1  0
  8  9  2  0
  9 10  1  0
 10 11  2  0
 11 12  1  0
 12 13  2  0
  7 14  2  0
 14 15  1  0
 15 16  2  0
 16  2  1  0
 15  5  1  0
 13  8  1  0
  3 17  1  0
  4 18  1  0
  6 19  1  0
  9 20  1  0
 10 21  1  0
 11 22  1  0
 12 23  1  0
 13 24  1  0
 16 25  1  0
M  END
$$$$
