
     RDKit          3D

 29 31  0  0  0  0  0  0  0  0999 V2000
    1.8474    2.5030   -1.5565 O   0  0  0  0  0  0  0  0  0  0  0  0
    1.3001    1.5692   -0.9805 C   0  0  0  0  0  0  0  0  0  0  0  0
   -0.1580    1.3881   -1.0177 C   0  0  0  0  0  0  0  0  0  0  0  0
   -0.7013    0.3519   -0.3621 C   0  0  0  0  0  0  0  0  0  0  0  0
   -2.1571    0.1078   -0.3677 C   0  0  0  0  0  0  0  0  0  0  0  0
   -3.0783    1.1529   -0.1916 C   0  0  0  0  0  0  0  0  0  0  0  0
   -4.4540    0.8997   -0.1888 C   0  0  0  0  0  0  0  0  0  0  0  0
   -4.9197   -0.4018   -0.3564 C   0  0  0  0  0  0  0  0  0  0  0  0
   -6.6113   -0.7126   -0.3527 Cl  0  0  0  0  0  0  0  0  0  0  0  0
   -4.0223   -1.4528   -0.5230 C   0  0  0  0  0  0  0  0  0  0  0  0
   -2.6472   -1.1985   -0.5250 C   0  0  0  0  0  0  0  0  0  0  0  0
    0.0279   -0.5895    0.3487 O   0  0  0  0  0  0  0  0  0  0  0  0
    1.3924   -0.4531    0.4082 C   0  0  0  0  0  0  0  0  0  0  0  0
    2.0957   -1.4106    1.1383 C   0  0  0  0  0  0  0  0  0  0  0  0
    3.4821   -1.3204    1.2303 C   0  0  0  0  0  0  0  0  0  0  0  0
    4.1312   -2.2771    1.9534 O   0  0  0  0  0  0  0  0  0  0  0  0
    4.1788   -0.2894    0.6052 C   0  0  0  0  0  0  0  0  0  0  0  0
    3.4708    0.6641   -0.1227 C   0  0  0  0  0  0  0  0  0  0  0  0
    4.2042    1.6554   -0.7173 O   0  0  0  0  0  0  0  0  0  0  0  0
    2.0776    0.5834   -0.2218 C   0  0  0  0  0  0  0  0  0  0  0  0
   -0.7246    2.1093   -1.5921 H   0  0  0  0  0  0  0  0  0  0  0  0
   -2.7382    2.1754   -0.0403 H   0  0  0  0  0  0  0  0  0  0  0  0
   -5.1530    1.7205   -0.0504 H   0  0  0  0  0  0  0  0  0  0  0  0
   -4.3822   -2.4704   -0.6501 H   0  0  0  0  0  0  0  0  0  0  0  0
   -1.9600   -2.0326   -0.6567 H   0  0  0  0  0  0  0  0  0  0  0  0
    1.5702   -2.2221    1.6340 H   0  0  0  0  0  0  0  0  0  0  0  0
    5.0854   -2.0907    1.9361 H   0  0  0  0  0  0  0  0  0  0  0  0
    5.2595   -0.2120    0.6718 H   0  0  0  0  0  0  0  0  0  0  0  0
    3.5839    2.2528   -1.1943 H   0  0  0  0  0  0  0  0  0  0  0  0
  1  2  2  0
  2  3  1  0
  3  4  2  0
  4  5  1  0
  5  6  1  0
  6  7  2  0
  7  8  1  0
  8  9  1  0
  8 10  2  0
 10 11  1  0
  4 12  1  0
 12 13  1  0
 13 14  2  0
 14 15  1  0
 15 16  1  0
 15 17  2  0
 17 18  1  0
 18 19  1  0
 18 20  2  0
 20  2  1  0
 11  5  2  0
 20 13  1  0
  3 21  1  0
  6 22  1  0
  7 23  1  0
 10 24  1  0
 11 25  1  0
 14 26  1  0
 16 27  1  0
 17 28  1  0
 19 29  1  0
M  END
$$$$
