
     RDKit          3D

 29 30  0  0  0  0  0  0  0  0999 V2000
    0.6828    0.0000    0.0000 Cl  0  0  0  0  0  0  0  0  0  0  0  0
   -4.6148   -0.6465    0.1347 N   0  0  0  0  0  0  0  0  0  0  0  0
   -3.2797   -0.1700    0.0269 C   0  0  0  0  0  0  0  0  0  0  0  0
   -2.9569    1.1430   -0.2274 C   0  0  0  0  0  0  0  0  0  0  0  0
   -1.6491    1.5856   -0.3285 C   0  0  0  0  0  0  0  0  0  0  0  0
   -0.6408    0.6868   -0.1702 C   0  0  0  0  0  0  0  0  0  0  0  0
    0.6603    1.1166   -0.2688 C   0  0  0  0  0  0  0  0  0  0  0  0
    1.0147    2.4662   -0.5304 N   0  0  0  0  0  0  0  0  0  0  0  0
    1.6420    0.1345   -0.0943 C   0  0  0  0  0  0  0  0  0  0  0  0
    2.9924    0.4596   -0.1736 C   0  0  0  0  0  0  0  0  0  0  0  0
    3.9542   -0.5150   -0.0003 C   0  0  0  0  0  0  0  0  0  0  0  0
    3.6019   -1.8245    0.2537 C   0  0  0  0  0  0  0  0  0  0  0  0
    2.2645   -2.1468    0.3323 C   0  0  0  0  0  0  0  0  0  0  0  0
    1.2935   -1.1867    0.1619 C   0  0  0  0  0  0  0  0  0  0  0  0
    0.0016   -1.5648    0.2505 N   0  0  0  0  0  0  0  0  0  0  0  0
   -0.9723   -0.6278    0.0845 C   0  0  0  0  0  0  0  0  0  0  0  0
   -2.2678   -1.0809    0.1874 C   0  0  0  0  0  0  0  0  0  0  0  0
   -0.6828    0.0000    0.0000 H   0  0  0  0  0  0  0  0  0  0  0  0
   -4.9764   -1.3687   -0.5568 H   0  0  0  0  0  0  0  0  0  0  0  0
   -5.2833   -0.3152    0.8812 H   0  0  0  0  0  0  0  0  0  0  0  0
   -3.7483    1.8708   -0.3559 H   0  0  0  0  0  0  0  0  0  0  0  0
   -1.4031    2.6353   -0.5316 H   0  0  0  0  0  0  0  0  0  0  0  0
    1.2305    2.8450   -1.4627 H   0  0  0  0  0  0  0  0  0  0  0  0
    1.0505    3.1005    0.3132 H   0  0  0  0  0  0  0  0  0  0  0  0
    3.2235    1.5003   -0.3748 H   0  0  0  0  0  0  0  0  0  0  0  0
    5.0026   -0.2578   -0.0627 H   0  0  0  0  0  0  0  0  0  0  0  0
    4.3858   -2.5504    0.3820 H   0  0  0  0  0  0  0  0  0  0  0  0
    1.9520   -3.1719    0.5316 H   0  0  0  0  0  0  0  0  0  0  0  0
   -2.4774   -2.1170    0.3875 H   0  0  0  0  0  0  0  0  0  0  0  0
  2  3  1  0
  3  4  2  0
  4  5  1  0
  5  6  2  0
  6  7  1  0
  7  8  1  0
  7  9  2  0
  9 10  1  0
 10 11  2  0
 11 12  1  0
 12 13  2  0
 13 14  1  0
 14 15  2  0
 15 16  1  0
 16 17  2  0
 17  3  1  0
 16  6  1  0
 14  9  1  0
  1 18  1  0
  2 19  1  0
  2 20  1  0
  4 21  1  0
  5 22  1  0
  8 23  1  0
  8 24  1  0
 10 25  1  0
 11 26  1  0
 12 27  1  0
 13 28  1  0
 17 29  1  0
M  END
$$$$
