
     RDKit          3D

 37 41  0  0  0  0  0  0  0  0999 V2000
    7.1112   -1.6682   -1.0129 N   0  0  0  0  0  0  0  0  0  0  0  0
    6.0167   -0.9321   -0.7751 C   0  0  0  0  0  0  0  0  0  0  0  0
    5.9233    0.3722   -0.7769 N   0  0  0  0  0  0  0  0  0  0  0  0
    4.6092    0.6416   -0.4808 C   0  0  0  0  0  0  0  0  0  0  0  0
    3.9510    1.8705   -0.3524 C   0  0  0  0  0  0  0  0  0  0  0  0
    2.5832    1.8715   -0.0359 C   0  0  0  0  0  0  0  0  0  0  0  0
    1.8615    0.6773    0.1544 C   0  0  0  0  0  0  0  0  0  0  0  0
    0.4274    0.7153    0.4893 C   0  0  0  0  0  0  0  0  0  0  0  0
   -0.0438    1.4578    1.5770 C   0  0  0  0  0  0  0  0  0  0  0  0
   -1.4070    1.4810    1.8843 C   0  0  0  0  0  0  0  0  0  0  0  0
   -2.3291    0.7741    1.1267 C   0  0  0  0  0  0  0  0  0  0  0  0
   -3.6328    0.8199    1.4540 N   0  0  0  0  0  0  0  0  0  0  0  0
   -4.4878    0.1183    0.6881 C   0  0  0  0  0  0  0  0  0  0  0  0
   -5.8461    0.1334    0.9829 C   0  0  0  0  0  0  0  0  0  0  0  0
   -6.7653   -0.5808    0.2130 C   0  0  0  0  0  0  0  0  0  0  0  0
   -6.3183   -1.3237   -0.8715 C   0  0  0  0  0  0  0  0  0  0  0  0
   -4.9563   -1.3455   -1.1755 C   0  0  0  0  0  0  0  0  0  0  0  0
   -4.0330   -0.6377   -0.4149 C   0  0  0  0  0  0  0  0  0  0  0  0
   -2.7280   -0.6841   -0.7398 N   0  0  0  0  0  0  0  0  0  0  0  0
   -1.8735    0.0193    0.0254 C   0  0  0  0  0  0  0  0  0  0  0  0
   -0.5147    0.0040   -0.2716 C   0  0  0  0  0  0  0  0  0  0  0  0
    2.5280   -0.5585    0.0222 C   0  0  0  0  0  0  0  0  0  0  0  0
    3.8899   -0.5324   -0.2941 C   0  0  0  0  0  0  0  0  0  0  0  0
    4.8184   -1.5234   -0.4846 N   0  0  0  0  0  0  0  0  0  0  0  0
    7.8911   -1.1349   -1.3909 H   0  0  0  0  0  0  0  0  0  0  0  0
    7.0226   -2.5729   -1.4608 H   0  0  0  0  0  0  0  0  0  0  0  0
    4.4947    2.7973   -0.4977 H   0  0  0  0  0  0  0  0  0  0  0  0
    2.0781    2.8324    0.0508 H   0  0  0  0  0  0  0  0  0  0  0  0
    0.6476    2.0173    2.2048 H   0  0  0  0  0  0  0  0  0  0  0  0
   -1.7564    2.0609    2.7351 H   0  0  0  0  0  0  0  0  0  0  0  0
   -6.1936    0.7163    1.8325 H   0  0  0  0  0  0  0  0  0  0  0  0
   -7.8230   -0.5534    0.4626 H   0  0  0  0  0  0  0  0  0  0  0  0
   -7.0219   -1.8849   -1.4812 H   0  0  0  0  0  0  0  0  0  0  0  0
   -4.6039   -1.9261   -2.0246 H   0  0  0  0  0  0  0  0  0  0  0  0
   -0.1888   -0.5750   -1.1339 H   0  0  0  0  0  0  0  0  0  0  0  0
    2.0074   -1.4993    0.1727 H   0  0  0  0  0  0  0  0  0  0  0  0
    4.6620   -2.5146   -0.4006 H   0  0  0  0  0  0  0  0  0  0  0  0
  1  2  1  0
  2  3  2  0
  3  4  1  0
  4  5  2  0
  5  6  1  0
  6  7  2  0
  7  8  1  0
  8  9  2  0
  9 10  1  0
 10 11  2  0
 11 12  1  0
 12 13  2  0
 13 14  1  0
 14 15  2  0
 15 16  1  0
 16 17  2  0
 17 18  1  0
 18 19  2  0
 19 20  1  0
 20 21  2  0
  7 22  1  0
 22 23  2  0
 23 24  1  0
 24  2  1  0
 23  4  1  0
 21  8  1  0
 20 11  1  0
 18 13  1  0
  1 25  1  0
  1 26  1  0
  5 27  1  0
  6 28  1  0
  9 29  1  0
 10 30  1  0
 14 31  1  0
 15 32  1  0
 16 33  1  0
 17 34  1  0
 21 35  1  0
 22 36  1  0
 24 37  1  0
M  END
$$$$
