
     RDKit          3D

 29 30  0  0  0  0  0  0  0  0999 V2000
    0.6828    0.0000    0.0000 Cl  0  0  0  0  0  0  0  0  0  0  0  0
    0.8730    2.4768    0.3254 N   0  0  0  0  0  0  0  0  0  0  0  0
    0.5976    1.1021    0.1118 C   0  0  0  0  0  0  0  0  0  0  0  0
    1.6466    0.2355   -0.0718 C   0  0  0  0  0  0  0  0  0  0  0  0
    2.9765    0.6510   -0.0571 C   0  0  0  0  0  0  0  0  0  0  0  0
    4.0151   -0.2562   -0.2469 C   0  0  0  0  0  0  0  0  0  0  0  0
    3.7545   -1.5748   -0.4519 C   0  0  0  0  0  0  0  0  0  0  0  0
    2.4327   -1.9942   -0.4675 C   0  0  0  0  0  0  0  0  0  0  0  0
    1.3923   -1.1030   -0.2802 C   0  0  0  0  0  0  0  0  0  0  0  0
    0.1095   -1.5184   -0.2967 N   0  0  0  0  0  0  0  0  0  0  0  0
   -0.9247   -0.6822   -0.1187 C   0  0  0  0  0  0  0  0  0  0  0  0
   -2.1954   -1.2183   -0.1555 C   0  0  0  0  0  0  0  0  0  0  0  0
   -3.2686   -0.3558    0.0284 C   0  0  0  0  0  0  0  0  0  0  0  0
   -4.5800   -0.9174   -0.0109 N   0  0  0  0  0  0  0  0  0  0  0  0
   -5.5756   -0.1543    0.1536 O   0  0  0  0  0  0  0  0  0  0  0  0
   -4.7875   -2.2752   -0.2244 O   0  0  0  0  0  0  0  0  0  0  0  0
   -3.0465    0.9804    0.2378 C   0  0  0  0  0  0  0  0  0  0  0  0
   -1.7711    1.5219    0.2752 C   0  0  0  0  0  0  0  0  0  0  0  0
   -0.7189    0.6575    0.0919 C   0  0  0  0  0  0  0  0  0  0  0  0
   -0.6828    0.0000    0.0000 H   0  0  0  0  0  0  0  0  0  0  0  0
    0.4629    3.1885   -0.3163 H   0  0  0  0  0  0  0  0  0  0  0  0
    1.4793    2.7951    1.1133 H   0  0  0  0  0  0  0  0  0  0  0  0
    3.1702    1.6996    0.1064 H   0  0  0  0  0  0  0  0  0  0  0  0
    5.0140    0.1393   -0.2223 H   0  0  0  0  0  0  0  0  0  0  0  0
    4.5569   -2.2695   -0.5975 H   0  0  0  0  0  0  0  0  0  0  0  0
    2.2566   -3.0482   -0.6326 H   0  0  0  0  0  0  0  0  0  0  0  0
   -2.3346   -2.2823   -0.3237 H   0  0  0  0  0  0  0  0  0  0  0  0
   -3.9196    1.6224    0.3776 H   0  0  0  0  0  0  0  0  0  0  0  0
   -1.6153    2.5798    0.4418 H   0  0  0  0  0  0  0  0  0  0  0  0
  2  3  1  0
  3  4  2  0
  4  5  1  0
  5  6  2  0
  6  7  1  0
  7  8  2  0
  8  9  1  0
  9 10  2  0
 10 11  1  0
 11 12  2  0
 12 13  1  0
 13 14  1  0
 14 15  2  0
 14 16  1  0
 13 17  2  0
 17 18  1  0
 18 19  2  0
 19  3  1  0
  9  4  1  0
 19 11  1  0
  1 20  1  0
  2 21  1  0
  2 22  1  0
  5 23  1  0
  6 24  1  0
  7 25  1  0
  8 26  1  0
 12 27  1  0
 17 28  1  0
 18 29  1  0
M  CHG  2  14   1  16  -1
M  END
$$$$
