
     RDKit          3D

 40 39  0  0  0  0  0  0  0  0999 V2000
    0.6828    0.0000    0.0000 Cl  0  0  0  0  0  0  0  0  0  0  0  0
    4.7698    2.4186    1.3415 N   0  0  0  0  0  0  0  0  0  0  0  0
    5.7991    1.8033    0.5225 C   0  0  0  0  0  0  0  0  0  0  0  0
    5.3451    0.3929    0.2186 C   0  0  0  0  0  0  0  0  0  0  0  0
    3.7864    0.3746   -0.6677 S   0  0  0  0  0  0  0  0  0  0  0  0
    2.1359    1.0523    0.4019 S   0  0  0  0  0  0  0  0  0  0  0  0
    1.2396   -0.2150    1.3216 C   0  0  0  0  0  0  0  0  0  0  0  0
    0.5879   -1.2049    0.4347 C   0  0  0  0  0  0  0  0  0  0  0  0
    1.1334   -2.4809    0.2860 C   0  0  0  0  0  0  0  0  0  0  0  0
    0.5384   -3.4140   -0.5395 C   0  0  0  0  0  0  0  0  0  0  0  0
   -0.6086   -3.0541   -1.2151 C   0  0  0  0  0  0  0  0  0  0  0  0
   -1.1704   -1.7809   -1.0788 C   0  0  0  0  0  0  0  0  0  0  0  0
   -0.5760   -0.8488   -0.2539 C   0  0  0  0  0  0  0  0  0  0  0  0
   -1.1695    0.5216   -0.0967 C   0  0  0  0  0  0  0  0  0  0  0  0
   -2.0591    0.6116    1.4805 S   0  0  0  0  0  0  0  0  0  0  0  0
   -3.7310   -0.7100    1.2893 S   0  0  0  0  0  0  0  0  0  0  0  0
   -5.1649    0.1731    0.6306 C   0  0  0  0  0  0  0  0  0  0  0  0
   -4.9475    0.6388   -0.7870 C   0  0  0  0  0  0  0  0  0  0  0  0
   -6.1613    1.3320   -1.1992 N   0  0  0  0  0  0  0  0  0  0  0  0
   -0.6828    0.0000    0.0000 H   0  0  0  0  0  0  0  0  0  0  0  0
    5.2102    3.1289    1.9563 H   0  0  0  0  0  0  0  0  0  0  0  0
    3.9817    2.7871    0.7590 H   0  0  0  0  0  0  0  0  0  0  0  0
    6.7675    1.7513    1.0087 H   0  0  0  0  0  0  0  0  0  0  0  0
    5.7892    2.3371   -0.4494 H   0  0  0  0  0  0  0  0  0  0  0  0
    6.0904   -0.2174   -0.3092 H   0  0  0  0  0  0  0  0  0  0  0  0
    5.1481   -0.1322    1.2021 H   0  0  0  0  0  0  0  0  0  0  0  0
    0.4286    0.3168    1.8597 H   0  0  0  0  0  0  0  0  0  0  0  0
    1.9027   -0.6408    2.0773 H   0  0  0  0  0  0  0  0  0  0  0  0
    2.0450   -2.6952    0.8512 H   0  0  0  0  0  0  0  0  0  0  0  0
    0.9549   -4.3931   -0.6507 H   0  0  0  0  0  0  0  0  0  0  0  0
   -1.1248   -3.7346   -1.8793 H   0  0  0  0  0  0  0  0  0  0  0  0
   -2.0563   -1.5031   -1.6006 H   0  0  0  0  0  0  0  0  0  0  0  0
   -1.8372    0.6732   -0.9704 H   0  0  0  0  0  0  0  0  0  0  0  0
   -0.3807    1.3060   -0.0795 H   0  0  0  0  0  0  0  0  0  0  0  0
   -5.2984    1.0916    1.2456 H   0  0  0  0  0  0  0  0  0  0  0  0
   -6.0705   -0.4502    0.6646 H   0  0  0  0  0  0  0  0  0  0  0  0
   -4.1297    1.3861   -0.8653 H   0  0  0  0  0  0  0  0  0  0  0  0
   -4.7499   -0.1551   -1.5147 H   0  0  0  0  0  0  0  0  0  0  0  0
   -6.0897    2.3596   -0.9906 H   0  0  0  0  0  0  0  0  0  0  0  0
   -6.3286    1.1737   -2.2367 H   0  0  0  0  0  0  0  0  0  0  0  0
  2  3  1  0
  3  4  1  0
  4  5  1  0
  5  6  1  0
  6  7  1  0
  7  8  1  0
  8  9  2  0
  9 10  1  0
 10 11  2  0
 11 12  1  0
 12 13  2  0
 13 14  1  0
 14 15  1  0
 15 16  1  0
 16 17  1  0
 17 18  1  0
 18 19  1  0
 13  8  1  0
  1 20  1  0
  2 21  1  0
  2 22  1  0
  3 23  1  0
  3 24  1  0
  4 25  1  0
  4 26  1  0
  7 27  1  0
  7 28  1  0
  9 29  1  0
 10 30  1  0
 11 31  1  0
 12 32  1  0
 14 33  1  0
 14 34  1  0
 17 35  1  0
 17 36  1  0
 18 37  1  0
 18 38  1  0
 19 39  1  0
 19 40  1  0
M  END
$$$$
