
     RDKit          3D

 32 34  0  0  0  0  0  0  0  0999 V2000
   -1.9615   -2.3948   -2.2839 O   0  0  0  0  0  0  0  0  0  0  0  0
   -1.5448   -1.5396   -1.5106 C   0  0  0  0  0  0  0  0  0  0  0  0
   -0.1058   -1.3107   -1.3170 C   0  0  0  0  0  0  0  0  0  0  0  0
    0.2909   -0.3671   -0.4506 C   0  0  0  0  0  0  0  0  0  0  0  0
    1.7204   -0.0806   -0.2172 C   0  0  0  0  0  0  0  0  0  0  0  0
    2.6530   -1.1192   -0.0327 C   0  0  0  0  0  0  0  0  0  0  0  0
    3.9992   -0.8269    0.1953 C   0  0  0  0  0  0  0  0  0  0  0  0
    4.9079   -1.8312    0.3731 O   0  0  0  0  0  0  0  0  0  0  0  0
    4.4229    0.4960    0.2461 C   0  0  0  0  0  0  0  0  0  0  0  0
    5.7374    0.8035    0.4672 O   0  0  0  0  0  0  0  0  0  0  0  0
    3.5049    1.5296    0.0759 C   0  0  0  0  0  0  0  0  0  0  0  0
    3.9743    2.8141    0.1411 O   0  0  0  0  0  0  0  0  0  0  0  0
    2.1598    1.2533   -0.1518 C   0  0  0  0  0  0  0  0  0  0  0  0
   -0.5730    0.4371    0.2770 O   0  0  0  0  0  0  0  0  0  0  0  0
   -1.9246    0.2520    0.1244 C   0  0  0  0  0  0  0  0  0  0  0  0
   -2.7669    1.0697    0.8769 C   0  0  0  0  0  0  0  0  0  0  0  0
   -4.1468    0.9255    0.7590 C   0  0  0  0  0  0  0  0  0  0  0  0
   -4.9343    1.7454    1.5119 O   0  0  0  0  0  0  0  0  0  0  0  0
   -4.7004   -0.0223   -0.0980 C   0  0  0  0  0  0  0  0  0  0  0  0
   -3.8539   -0.8364   -0.8469 C   0  0  0  0  0  0  0  0  0  0  0  0
   -4.4499   -1.7503   -1.6735 O   0  0  0  0  0  0  0  0  0  0  0  0
   -2.4659   -0.7002   -0.7366 C   0  0  0  0  0  0  0  0  0  0  0  0
    0.5686   -1.9211   -1.9036 H   0  0  0  0  0  0  0  0  0  0  0  0
    2.3244   -2.1545   -0.0549 H   0  0  0  0  0  0  0  0  0  0  0  0
    4.4585   -2.6890    0.3397 H   0  0  0  0  0  0  0  0  0  0  0  0
    5.7712    1.7790    0.4610 H   0  0  0  0  0  0  0  0  0  0  0  0
    3.2253    3.4231    0.0218 H   0  0  0  0  0  0  0  0  0  0  0  0
    1.4489    2.0640   -0.2858 H   0  0  0  0  0  0  0  0  0  0  0  0
   -2.3551    1.8140    1.5527 H   0  0  0  0  0  0  0  0  0  0  0  0
   -5.8671    1.5316    1.3389 H   0  0  0  0  0  0  0  0  0  0  0  0
   -5.7749   -0.1409   -0.1958 H   0  0  0  0  0  0  0  0  0  0  0  0
   -3.7427   -2.2532   -2.1383 H   0  0  0  0  0  0  0  0  0  0  0  0
  1  2  2  0
  2  3  1  0
  3  4  2  0
  4  5  1  0
  5  6  1  0
  6  7  2  0
  7  8  1  0
  7  9  1  0
  9 10  1  0
  9 11  2  0
 11 12  1  0
 11 13  1  0
  4 14  1  0
 14 15  1  0
 15 16  2  0
 16 17  1  0
 17 18  1  0
 17 19  2  0
 19 20  1  0
 20 21  1  0
 20 22  2  0
 22  2  1  0
 13  5  2  0
 22 15  1  0
  3 23  1  0
  6 24  1  0
  8 25  1  0
 10 26  1  0
 12 27  1  0
 13 28  1  0
 16 29  1  0
 18 30  1  0
 19 31  1  0
 21 32  1  0
M  END
$$$$
