
     RDKit          3D

 30 32  0  0  0  0  0  0  0  0999 V2000
    2.0183    2.3627   -1.9351 O   0  0  0  0  0  0  0  0  0  0  0  0
    1.5056    1.4961   -1.2355 C   0  0  0  0  0  0  0  0  0  0  0  0
    0.0538    1.2680   -1.2335 C   0  0  0  0  0  0  0  0  0  0  0  0
   -0.4529    0.3114   -0.4420 C   0  0  0  0  0  0  0  0  0  0  0  0
   -1.9003    0.0279   -0.4014 C   0  0  0  0  0  0  0  0  0  0  0  0
   -2.8488    1.0612   -0.3249 C   0  0  0  0  0  0  0  0  0  0  0  0
   -4.2171    0.7751   -0.2761 C   0  0  0  0  0  0  0  0  0  0  0  0
   -4.6401   -0.5488   -0.2986 C   0  0  0  0  0  0  0  0  0  0  0  0
   -5.9626   -0.8742   -0.2529 O   0  0  0  0  0  0  0  0  0  0  0  0
   -3.7204   -1.5870   -0.3653 C   0  0  0  0  0  0  0  0  0  0  0  0
   -2.3541   -1.3000   -0.4130 C   0  0  0  0  0  0  0  0  0  0  0  0
    0.3082   -0.5069    0.3787 O   0  0  0  0  0  0  0  0  0  0  0  0
    1.6687   -0.3222    0.4078 C   0  0  0  0  0  0  0  0  0  0  0  0
    2.4012   -1.1559    1.2550 C   0  0  0  0  0  0  0  0  0  0  0  0
    3.7848   -1.0103    1.3213 C   0  0  0  0  0  0  0  0  0  0  0  0
    4.5417   -1.8011    2.1345 O   0  0  0  0  0  0  0  0  0  0  0  0
    4.4430   -0.0500    0.5576 C   0  0  0  0  0  0  0  0  0  0  0  0
    3.7074    0.7785   -0.2853 C   0  0  0  0  0  0  0  0  0  0  0  0
    4.4060    1.7042   -1.0120 O   0  0  0  0  0  0  0  0  0  0  0  0
    2.3179    0.6428   -0.3606 C   0  0  0  0  0  0  0  0  0  0  0  0
   -0.5395    1.8896   -1.8912 H   0  0  0  0  0  0  0  0  0  0  0  0
   -2.5332    2.1017   -0.2890 H   0  0  0  0  0  0  0  0  0  0  0  0
   -4.9287    1.5927   -0.2166 H   0  0  0  0  0  0  0  0  0  0  0  0
   -6.4847   -0.0564   -0.2089 H   0  0  0  0  0  0  0  0  0  0  0  0
   -4.0639   -2.6175   -0.3797 H   0  0  0  0  0  0  0  0  0  0  0  0
   -1.6471   -2.1252   -0.4668 H   0  0  0  0  0  0  0  0  0  0  0  0
    1.8844   -1.9030    1.8491 H   0  0  0  0  0  0  0  0  0  0  0  0
    3.9632   -2.4198    2.6102 H   0  0  0  0  0  0  0  0  0  0  0  0
    5.5229    0.0528    0.6187 H   0  0  0  0  0  0  0  0  0  0  0  0
    3.7665    2.2136   -1.5591 H   0  0  0  0  0  0  0  0  0  0  0  0
  1  2  2  0
  2  3  1  0
  3  4  2  0
  4  5  1  0
  5  6  1  0
  6  7  2  0
  7  8  1  0
  8  9  1  0
  8 10  2  0
 10 11  1  0
  4 12  1  0
 12 13  1  0
 13 14  2  0
 14 15  1  0
 15 16  1  0
 15 17  2  0
 17 18  1  0
 18 19  1  0
 18 20  2  0
 20  2  1  0
 11  5  2  0
 20 13  1  0
  3 21  1  0
  6 22  1  0
  7 23  1  0
  9 24  1  0
 10 25  1  0
 11 26  1  0
 14 27  1  0
 16 28  1  0
 17 29  1  0
 19 30  1  0
M  END
$$$$
