
     RDKit          3D

 54 60  0  0  0  0  0  0  0  0999 V2000
   11.0830   -1.1048   -0.3464 C   0  0  0  0  0  0  0  0  0  0  0  0
    9.6019   -1.0972   -0.3417 C   0  0  0  0  0  0  0  0  0  0  0  0
    8.8174   -0.0616   -0.1256 N   0  0  0  0  0  0  0  0  0  0  0  0
    7.5349   -0.5430   -0.2229 C   0  0  0  0  0  0  0  0  0  0  0  0
    6.3138    0.1352   -0.0800 C   0  0  0  0  0  0  0  0  0  0  0  0
    5.1100   -0.5771   -0.2256 C   0  0  0  0  0  0  0  0  0  0  0  0
    3.7977    0.0696   -0.0893 C   0  0  0  0  0  0  0  0  0  0  0  0
    2.6253   -0.5363   -0.1757 N   0  0  0  0  0  0  0  0  0  0  0  0
    1.6714    0.4326    0.0088 C   0  0  0  0  0  0  0  0  0  0  0  0
    0.2732    0.3315    0.0131 C   0  0  0  0  0  0  0  0  0  0  0  0
   -0.5056    1.4830    0.2351 C   0  0  0  0  0  0  0  0  0  0  0  0
   -1.9683    1.3529    0.2419 C   0  0  0  0  0  0  0  0  0  0  0  0
   -2.6556    0.3182   -0.2106 N   0  0  0  0  0  0  0  0  0  0  0  0
   -3.9797    0.6108   -0.0017 C   0  0  0  0  0  0  0  0  0  0  0  0
   -5.1249   -0.1413   -0.3021 C   0  0  0  0  0  0  0  0  0  0  0  0
   -6.3990    0.3718    0.0141 C   0  0  0  0  0  0  0  0  0  0  0  0
   -7.6144   -0.4037   -0.2897 C   0  0  0  0  0  0  0  0  0  0  0  0
   -7.7588   -1.7274    0.1587 C   0  0  0  0  0  0  0  0  0  0  0  0
   -8.9117   -2.4639   -0.1269 C   0  0  0  0  0  0  0  0  0  0  0  0
   -9.9407   -1.8888   -0.8680 C   0  0  0  0  0  0  0  0  0  0  0  0
   -9.8177   -0.5788   -1.3238 C   0  0  0  0  0  0  0  0  0  0  0  0
   -8.6644    0.1568   -1.0365 C   0  0  0  0  0  0  0  0  0  0  0  0
   -6.4870    1.6362    0.6287 C   0  0  0  0  0  0  0  0  0  0  0  0
   -5.3545    2.4037    0.9373 C   0  0  0  0  0  0  0  0  0  0  0  0
   -4.1202    1.8504    0.6022 C   0  0  0  0  0  0  0  0  0  0  0  0
   -2.8331    2.2970    0.7516 N   0  0  0  0  0  0  0  0  0  0  0  0
    0.1375    2.7181    0.4345 C   0  0  0  0  0  0  0  0  0  0  0  0
    1.5358    2.8391    0.4310 C   0  0  0  0  0  0  0  0  0  0  0  0
    2.2624    1.6691    0.2165 C   0  0  0  0  0  0  0  0  0  0  0  0
    3.6076    1.4139    0.1466 N   0  0  0  0  0  0  0  0  0  0  0  0
    5.1611   -1.9546   -0.5099 C   0  0  0  0  0  0  0  0  0  0  0  0
    6.3699   -2.6498   -0.6563 C   0  0  0  0  0  0  0  0  0  0  0  0
    7.5350   -1.9019   -0.5043 C   0  0  0  0  0  0  0  0  0  0  0  0
    8.8636   -2.2317   -0.5753 N   0  0  0  0  0  0  0  0  0  0  0  0
   11.4669   -1.7837    0.4212 H   0  0  0  0  0  0  0  0  0  0  0  0
   11.4637   -1.4275   -1.3204 H   0  0  0  0  0  0  0  0  0  0  0  0
   11.4741   -0.1032   -0.1422 H   0  0  0  0  0  0  0  0  0  0  0  0
    6.3496    1.1932    0.1415 H   0  0  0  0  0  0  0  0  0  0  0  0
   -0.1925   -0.6357   -0.1526 H   0  0  0  0  0  0  0  0  0  0  0  0
   -5.0082   -1.1064   -0.7843 H   0  0  0  0  0  0  0  0  0  0  0  0
   -6.9702   -2.1936    0.7466 H   0  0  0  0  0  0  0  0  0  0  0  0
   -9.0035   -3.4860    0.2313 H   0  0  0  0  0  0  0  0  0  0  0  0
  -10.8365   -2.4619   -1.0918 H   0  0  0  0  0  0  0  0  0  0  0  0
  -10.6164   -0.1283   -1.9072 H   0  0  0  0  0  0  0  0  0  0  0  0
   -8.5832    1.1741   -1.4140 H   0  0  0  0  0  0  0  0  0  0  0  0
   -7.4662    2.0367    0.8905 H   0  0  0  0  0  0  0  0  0  0  0  0
   -5.4449    3.3728    1.4151 H   0  0  0  0  0  0  0  0  0  0  0  0
   -2.5640    3.1658    1.1844 H   0  0  0  0  0  0  0  0  0  0  0  0
   -0.4396    3.6275    0.5818 H   0  0  0  0  0  0  0  0  0  0  0  0
    2.0197    3.7980    0.5818 H   0  0  0  0  0  0  0  0  0  0  0  0
    4.3381    2.1005    0.2481 H   0  0  0  0  0  0  0  0  0  0  0  0
    4.2278   -2.5086   -0.6224 H   0  0  0  0  0  0  0  0  0  0  0  0
    6.3840   -3.7115   -0.8758 H   0  0  0  0  0  0  0  0  0  0  0  0
    9.2354   -3.1506   -0.7662 H   0  0  0  0  0  0  0  0  0  0  0  0
  1  2  1  0
  2  3  2  0
  3  4  1  0
  4  5  2  0
  5  6  1  0
  6  7  1  0
  7  8  2  0
  8  9  1  0
  9 10  2  0
 10 11  1  0
 11 12  1  0
 12 13  2  0
 13 14  1  0
 14 15  2  0
 15 16  1  0
 16 17  1  0
 17 18  2  0
 18 19  1  0
 19 20  2  0
 20 21  1  0
 21 22  2  0
 16 23  2  0
 23 24  1  0
 24 25  2  0
 25 26  1  0
 11 27  2  0
 27 28  1  0
 28 29  2  0
 29 30  1  0
  6 31  2  0
 31 32  1  0
 32 33  2  0
 33 34  1  0
 34  2  1  0
 33  4  1  0
 30  7  1  0
 29  9  1  0
 26 12  1  0
 25 14  1  0
 22 17  1  0
  1 35  1  0
  1 36  1  0
  1 37  1  0
  5 38  1  0
 10 39  1  0
 15 40  1  0
 18 41  1  0
 19 42  1  0
 20 43  1  0
 21 44  1  0
 22 45  1  0
 23 46  1  0
 24 47  1  0
 26 48  1  0
 27 49  1  0
 28 50  1  0
 30 51  1  0
 31 52  1  0
 32 53  1  0
 34 54  1  0
M  END
$$$$
