
     RDKit          3D

 31 33  0  0  0  0  0  0  0  0999 V2000
   -5.9198    0.2990   -0.0678 N   0  0  0  0  0  0  0  0  0  0  0  0
   -4.5317    0.1612    0.0324 C   0  0  0  0  0  0  0  0  0  0  0  0
   -3.9786   -0.9307    0.7026 C   0  0  0  0  0  0  0  0  0  0  0  0
   -2.5949   -1.1445    0.7069 C   0  0  0  0  0  0  0  0  0  0  0  0
   -1.7374   -0.2930   -0.0025 C   0  0  0  0  0  0  0  0  0  0  0  0
   -0.2753   -0.4918   -0.0077 C   0  0  0  0  0  0  0  0  0  0  0  0
    0.2697   -1.7085   -0.1535 C   0  0  0  0  0  0  0  0  0  0  0  0
    1.7336   -1.8369   -0.1603 C   0  0  0  0  0  0  0  0  0  0  0  0
    2.2845   -2.9256   -0.2821 O   0  0  0  0  0  0  0  0  0  0  0  0
    2.5141   -0.6034   -0.0131 C   0  0  0  0  0  0  0  0  0  0  0  0
    3.9131   -0.6148   -0.0068 C   0  0  0  0  0  0  0  0  0  0  0  0
    4.6497   -1.7617   -0.1351 O   0  0  0  0  0  0  0  0  0  0  0  0
    4.6239    0.5748    0.1341 C   0  0  0  0  0  0  0  0  0  0  0  0
    3.9241    1.7713    0.2680 C   0  0  0  0  0  0  0  0  0  0  0  0
    4.5759    2.9608    0.4083 O   0  0  0  0  0  0  0  0  0  0  0  0
    2.5319    1.7944    0.2631 C   0  0  0  0  0  0  0  0  0  0  0  0
    1.8259    0.6002    0.1217 C   0  0  0  0  0  0  0  0  0  0  0  0
    0.4557    0.6796    0.1224 O   0  0  0  0  0  0  0  0  0  0  0  0
   -2.3020    0.7733   -0.7145 C   0  0  0  0  0  0  0  0  0  0  0  0
   -3.6862    0.9809   -0.7157 C   0  0  0  0  0  0  0  0  0  0  0  0
   -6.4311   -0.0995    0.7134 H   0  0  0  0  0  0  0  0  0  0  0  0
   -6.2248    1.2425   -0.2858 H   0  0  0  0  0  0  0  0  0  0  0  0
   -4.6211   -1.6269    1.2355 H   0  0  0  0  0  0  0  0  0  0  0  0
   -2.2027   -1.9859    1.2732 H   0  0  0  0  0  0  0  0  0  0  0  0
   -0.3017   -2.6188   -0.2795 H   0  0  0  0  0  0  0  0  0  0  0  0
    4.0261   -2.5179   -0.2271 H   0  0  0  0  0  0  0  0  0  0  0  0
    5.7090    0.5479    0.1368 H   0  0  0  0  0  0  0  0  0  0  0  0
    5.5343    2.7968    0.3965 H   0  0  0  0  0  0  0  0  0  0  0  0
    2.0036    2.7377    0.3697 H   0  0  0  0  0  0  0  0  0  0  0  0
   -1.6716    1.4447   -1.2940 H   0  0  0  0  0  0  0  0  0  0  0  0
   -4.0961    1.7945   -1.3083 H   0  0  0  0  0  0  0  0  0  0  0  0
  1  2  1  0
  2  3  1  0
  3  4  2  0
  4  5  1  0
  5  6  1  0
  6  7  2  0
  7  8  1  0
  8  9  2  0
  8 10  1  0
 10 11  2  0
 11 12  1  0
 11 13  1  0
 13 14  2  0
 14 15  1  0
 14 16  1  0
 16 17  2  0
 17 18  1  0
  5 19  2  0
 19 20  1  0
 20  2  2  0
 18  6  1  0
 17 10  1  0
  1 21  1  0
  1 22  1  0
  3 23  1  0
  4 24  1  0
  7 25  1  0
 12 26  1  0
 13 27  1  0
 15 28  1  0
 16 29  1  0
 19 30  1  0
 20 31  1  0
M  END
$$$$
