
     RDKit          3D

 30 32  0  0  0  0  0  0  0  0999 V2000
   -2.4094   -2.8814    0.2570 O   0  0  0  0  0  0  0  0  0  0  0  0
   -1.8449   -1.7971    0.1663 C   0  0  0  0  0  0  0  0  0  0  0  0
   -0.3916   -1.6960   -0.0271 C   0  0  0  0  0  0  0  0  0  0  0  0
    0.1691   -0.4813   -0.1213 C   0  0  0  0  0  0  0  0  0  0  0  0
    1.6240   -0.3121   -0.3065 C   0  0  0  0  0  0  0  0  0  0  0  0
    2.3387   -1.0958   -1.2320 C   0  0  0  0  0  0  0  0  0  0  0  0
    3.7144   -0.9213   -1.4070 C   0  0  0  0  0  0  0  0  0  0  0  0
    4.3744    0.0413   -0.6609 C   0  0  0  0  0  0  0  0  0  0  0  0
    5.7176    0.2115   -0.8323 O   0  0  0  0  0  0  0  0  0  0  0  0
    3.6829    0.8319    0.2515 C   0  0  0  0  0  0  0  0  0  0  0  0
    4.3975    1.7652    0.9512 O   0  0  0  0  0  0  0  0  0  0  0  0
    2.3132    0.6654    0.4327 C   0  0  0  0  0  0  0  0  0  0  0  0
   -0.5328    0.7114   -0.0308 O   0  0  0  0  0  0  0  0  0  0  0  0
   -1.8936    0.6587    0.1407 C   0  0  0  0  0  0  0  0  0  0  0  0
   -2.5717    1.8746    0.2109 C   0  0  0  0  0  0  0  0  0  0  0  0
   -3.9523    1.8753    0.3872 C   0  0  0  0  0  0  0  0  0  0  0  0
   -4.6029    3.0438    0.4555 F   0  0  0  0  0  0  0  0  0  0  0  0
   -4.6671    0.6867    0.4947 C   0  0  0  0  0  0  0  0  0  0  0  0
   -3.9861   -0.5246    0.4236 C   0  0  0  0  0  0  0  0  0  0  0  0
   -4.7358   -1.6635    0.5354 O   0  0  0  0  0  0  0  0  0  0  0  0
   -2.5980   -0.5401    0.2459 C   0  0  0  0  0  0  0  0  0  0  0  0
    0.1606   -2.6258   -0.0746 H   0  0  0  0  0  0  0  0  0  0  0  0
    1.8317   -1.8436   -1.8384 H   0  0  0  0  0  0  0  0  0  0  0  0
    4.2629   -1.5273   -2.1220 H   0  0  0  0  0  0  0  0  0  0  0  0
    5.9558    0.9318   -0.2151 H   0  0  0  0  0  0  0  0  0  0  0  0
    3.7863    2.2420    1.5389 H   0  0  0  0  0  0  0  0  0  0  0  0
    1.7757    1.2823    1.1470 H   0  0  0  0  0  0  0  0  0  0  0  0
   -2.0404    2.8174    0.1286 H   0  0  0  0  0  0  0  0  0  0  0  0
   -5.7435    0.7107    0.6320 H   0  0  0  0  0  0  0  0  0  0  0  0
   -4.1346   -2.4401    0.4688 H   0  0  0  0  0  0  0  0  0  0  0  0
  1  2  2  0
  2  3  1  0
  3  4  2  0
  4  5  1  0
  5  6  1  0
  6  7  2  0
  7  8  1  0
  8  9  1  0
  8 10  2  0
 10 11  1  0
 10 12  1  0
  4 13  1  0
 13 14  1  0
 14 15  2  0
 15 16  1  0
 16 17  1  0
 16 18  2  0
 18 19  1  0
 19 20  1  0
 19 21  2  0
 21  2  1  0
 12  5  2  0
 21 14  1  0
  3 22  1  0
  6 23  1  0
  7 24  1  0
  9 25  1  0
 11 26  1  0
 12 27  1  0
 15 28  1  0
 18 29  1  0
 20 30  1  0
M  END
$$$$
