
     RDKit          3D

 31 33  0  0  0  0  0  0  0  0999 V2000
    4.6262    1.9817    1.7497 O   0  0  0  0  0  0  0  0  0  0  0  0
    3.9423    1.1405    0.9252 C   0  0  0  0  0  0  0  0  0  0  0  0
    4.5983    0.2949    0.0436 C   0  0  0  0  0  0  0  0  0  0  0  0
    3.8560   -0.5533   -0.7856 C   0  0  0  0  0  0  0  0  0  0  0  0
    4.6260   -1.3332   -1.6064 O   0  0  0  0  0  0  0  0  0  0  0  0
    2.4479   -0.5679   -0.7448 C   0  0  0  0  0  0  0  0  0  0  0  0
    1.5648   -1.4349   -1.5870 C   0  0  0  0  0  0  0  0  0  0  0  0
    2.1085   -2.5585   -2.7272 S   0  0  0  0  0  0  0  0  0  0  0  0
    0.1018   -1.2713   -1.3765 C   0  0  0  0  0  0  0  0  0  0  0  0
   -0.3526   -0.4020   -0.4663 C   0  0  0  0  0  0  0  0  0  0  0  0
   -1.7962   -0.2058   -0.2337 C   0  0  0  0  0  0  0  0  0  0  0  0
   -2.6705   -1.2997   -0.0862 C   0  0  0  0  0  0  0  0  0  0  0  0
   -4.0377   -1.1050    0.1444 C   0  0  0  0  0  0  0  0  0  0  0  0
   -4.5305    0.1896    0.2325 C   0  0  0  0  0  0  0  0  0  0  0  0
   -5.8543    0.4470    0.4560 O   0  0  0  0  0  0  0  0  0  0  0  0
   -3.6732    1.2774    0.0966 C   0  0  0  0  0  0  0  0  0  0  0  0
   -4.1660    2.5480    0.1870 O   0  0  0  0  0  0  0  0  0  0  0  0
   -2.3155    1.0930   -0.1306 C   0  0  0  0  0  0  0  0  0  0  0  0
    0.4567    0.3979    0.3091 O   0  0  0  0  0  0  0  0  0  0  0  0
    1.8180    0.3012    0.1590 C   0  0  0  0  0  0  0  0  0  0  0  0
    2.5584    1.1502    0.9891 C   0  0  0  0  0  0  0  0  0  0  0  0
    5.5792    1.8709    1.5922 H   0  0  0  0  0  0  0  0  0  0  0  0
    5.6825    0.2770   -0.0174 H   0  0  0  0  0  0  0  0  0  0  0  0
    4.0417   -1.8931   -2.1547 H   0  0  0  0  0  0  0  0  0  0  0  0
   -0.5706   -1.8659   -1.9865 H   0  0  0  0  0  0  0  0  0  0  0  0
   -2.2907   -2.3185   -0.1360 H   0  0  0  0  0  0  0  0  0  0  0  0
   -4.6871   -1.9673    0.2552 H   0  0  0  0  0  0  0  0  0  0  0  0
   -6.3205   -0.4030    0.5355 H   0  0  0  0  0  0  0  0  0  0  0  0
   -5.1231    2.4300    0.3498 H   0  0  0  0  0  0  0  0  0  0  0  0
   -1.6723    1.9633   -0.2314 H   0  0  0  0  0  0  0  0  0  0  0  0
    2.0524    1.8167    1.6829 H   0  0  0  0  0  0  0  0  0  0  0  0
  1  2  1  0
  2  3  2  0
  3  4  1  0
  4  5  1  0
  4  6  2  0
  6  7  1  0
  7  8  2  0
  7  9  1  0
  9 10  2  0
 10 11  1  0
 11 12  1  0
 12 13  2  0
 13 14  1  0
 14 15  1  0
 14 16  2  0
 16 17  1  0
 16 18  1  0
 10 19  1  0
 19 20  1  0
 20 21  2  0
 21  2  1  0
 20  6  1  0
 18 11  2  0
  1 22  1  0
  3 23  1  0
  5 24  1  0
  9 25  1  0
 12 26  1  0
 13 27  1  0
 15 28  1  0
 17 29  1  0
 18 30  1  0
 21 31  1  0
M  END
$$$$
