
     RDKit          3D

 22 22  0  0  0  0  0  0  0  0999 V2000
    4.1496    0.6377   -0.7150 N   0  0  0  0  0  0  0  0  0  0  0  0
    2.9025    0.0171   -1.1646 C   0  0  0  0  0  0  0  0  0  0  0  0
    2.1289   -0.6651   -0.0290 C   0  0  0  0  0  0  0  0  0  0  0  0
    1.5948    0.4748    1.3010 S   0  0  0  0  0  0  0  0  0  0  0  0
    0.2255    1.6875    0.3558 S   0  0  0  0  0  0  0  0  0  0  0  0
   -1.2597    0.7002    0.4041 C   0  0  0  0  0  0  0  0  0  0  0  0
   -1.8554    0.3466    1.6197 C   0  0  0  0  0  0  0  0  0  0  0  0
   -3.0231   -0.4193    1.6365 C   0  0  0  0  0  0  0  0  0  0  0  0
   -3.6051   -0.8301    0.4383 C   0  0  0  0  0  0  0  0  0  0  0  0
   -3.0229   -0.4734   -0.7770 C   0  0  0  0  0  0  0  0  0  0  0  0
   -1.8549    0.2923   -0.7945 C   0  0  0  0  0  0  0  0  0  0  0  0
    4.5469    1.1889   -1.4747 H   0  0  0  0  0  0  0  0  0  0  0  0
    3.9356    1.2996    0.0338 H   0  0  0  0  0  0  0  0  0  0  0  0
    2.2807    0.7677   -1.6638 H   0  0  0  0  0  0  0  0  0  0  0  0
    3.1514   -0.7368   -1.9197 H   0  0  0  0  0  0  0  0  0  0  0  0
    1.2491   -1.1812   -0.4279 H   0  0  0  0  0  0  0  0  0  0  0  0
    2.7600   -1.4310    0.4357 H   0  0  0  0  0  0  0  0  0  0  0  0
   -1.4152    0.6643    2.5621 H   0  0  0  0  0  0  0  0  0  0  0  0
   -3.4782   -0.6929    2.5850 H   0  0  0  0  0  0  0  0  0  0  0  0
   -4.5148   -1.4252    0.4521 H   0  0  0  0  0  0  0  0  0  0  0  0
   -3.4798   -0.7888   -1.7116 H   0  0  0  0  0  0  0  0  0  0  0  0
   -1.4158    0.5670   -1.7503 H   0  0  0  0  0  0  0  0  0  0  0  0
  1  2  1  0
  2  3  1  0
  3  4  1  0
  4  5  1  0
  5  6  1  0
  6  7  2  0
  7  8  1  0
  8  9  2  0
  9 10  1  0
 10 11  2  0
 11  6  1  0
  1 12  1  0
  1 13  1  0
  2 14  1  0
  2 15  1  0
  3 16  1  0
  3 17  1  0
  7 18  1  0
  8 19  1  0
  9 20  1  0
 10 21  1  0
 11 22  1  0
M  END
$$$$
