
     RDKit          3D

 27 28  0  0  0  0  0  0  0  0999 V2000
    0.6828    0.0000    0.0000 Cl  0  0  0  0  0  0  0  0  0  0  0  0
    0.1763   -2.4215   -0.3075 N   0  0  0  0  0  0  0  0  0  0  0  0
    0.0624   -1.0135   -0.1302 C   0  0  0  0  0  0  0  0  0  0  0  0
   -1.1619   -0.3868   -0.1330 C   0  0  0  0  0  0  0  0  0  0  0  0
   -2.3157   -1.1360   -0.3119 C   0  0  0  0  0  0  0  0  0  0  0  0
   -3.5606   -0.5199   -0.3176 C   0  0  0  0  0  0  0  0  0  0  0  0
   -3.6448    0.8546   -0.1427 C   0  0  0  0  0  0  0  0  0  0  0  0
   -2.4927    1.5805    0.0331 C   0  0  0  0  0  0  0  0  0  0  0  0
   -1.2267    0.9891    0.0435 C   0  0  0  0  0  0  0  0  0  0  0  0
   -0.1316    1.7443    0.2191 N   0  0  0  0  0  0  0  0  0  0  0  0
    1.0867    1.1267    0.2226 C   0  0  0  0  0  0  0  0  0  0  0  0
    2.2339    1.8695    0.4001 C   0  0  0  0  0  0  0  0  0  0  0  0
    3.4977    1.2844    0.4109 C   0  0  0  0  0  0  0  0  0  0  0  0
    3.6095   -0.0801    0.2392 C   0  0  0  0  0  0  0  0  0  0  0  0
    2.4554   -0.8217    0.0615 C   0  0  0  0  0  0  0  0  0  0  0  0
    1.1939   -0.2440    0.0498 C   0  0  0  0  0  0  0  0  0  0  0  0
   -0.6828    0.0000    0.0000 H   0  0  0  0  0  0  0  0  0  0  0  0
    0.4468   -2.8534   -1.2208 H   0  0  0  0  0  0  0  0  0  0  0  0
   -0.0162   -3.0652    0.5030 H   0  0  0  0  0  0  0  0  0  0  0  0
   -2.2084   -2.2011   -0.4446 H   0  0  0  0  0  0  0  0  0  0  0  0
   -4.4771   -1.1145   -0.4597 H   0  0  0  0  0  0  0  0  0  0  0  0
   -4.6051    1.3360   -0.1462 H   0  0  0  0  0  0  0  0  0  0  0  0
   -2.5308    2.6559    0.1720 H   0  0  0  0  0  0  0  0  0  0  0  0
    2.1272    2.9549    0.5355 H   0  0  0  0  0  0  0  0  0  0  0  0
    4.3928    1.8986    0.5540 H   0  0  0  0  0  0  0  0  0  0  0  0
    4.5903   -0.5357    0.2474 H   0  0  0  0  0  0  0  0  0  0  0  0
    2.4987   -1.9010   -0.0775 H   0  0  0  0  0  0  0  0  0  0  0  0
  2  3  1  0
  3  4  2  0
  4  5  1  0
  5  6  2  0
  6  7  1  0
  7  8  2  0
  8  9  1  0
  9 10  2  0
 10 11  1  0
 11 12  2  0
 12 13  1  0
 13 14  2  0
 14 15  1  0
 15 16  2  0
 16  3  1  0
  9  4  1  0
 16 11  1  0
  1 17  1  0
  2 18  1  0
  2 19  1  0
  5 20  1  0
  6 21  1  0
  7 22  1  0
  8 23  1  0
 12 24  1  0
 13 25  1  0
 14 26  1  0
 15 27  1  0
M  END
$$$$
