
     RDKit          3D

 58 63  0  0  0  0  0  0  0  0999 V2000
    5.1996    0.1330   -2.2434 O   0  0  0  0  0  0  0  0  0  0  0  0
    4.5289   -0.3356   -1.3307 C   0  0  0  0  0  0  0  0  0  0  0  0
    3.5436    0.4776   -0.6026 C   0  0  0  0  0  0  0  0  0  0  0  0
    2.8205   -0.0946    0.3700 C   0  0  0  0  0  0  0  0  0  0  0  0
    1.8208    0.6672    1.1447 C   0  0  0  0  0  0  0  0  0  0  0  0
    1.7413    0.5033    2.5353 C   0  0  0  0  0  0  0  0  0  0  0  0
    0.7932    1.2018    3.2831 C   0  0  0  0  0  0  0  0  0  0  0  0
   -0.0933    2.0707    2.6495 C   0  0  0  0  0  0  0  0  0  0  0  0
   -0.0436    2.2527    1.2611 C   0  0  0  0  0  0  0  0  0  0  0  0
   -0.9854    3.1653    0.5929 C   0  0  0  0  0  0  0  0  0  0  0  0
   -0.8219    4.5628    0.6415 C   0  0  0  0  0  0  0  0  0  0  0  0
    0.2243    5.1638    1.2906 O   0  0  0  0  0  0  0  0  0  0  0  0
   -1.7234    5.4258    0.0171 C   0  0  0  0  0  0  0  0  0  0  0  0
   -2.8108    4.9055   -0.6744 C   0  0  0  0  0  0  0  0  0  0  0  0
   -3.6563    5.8056   -1.2641 O   0  0  0  0  0  0  0  0  0  0  0  0
   -2.9989    3.5231   -0.7425 C   0  0  0  0  0  0  0  0  0  0  0  0
   -4.1406    2.9433   -1.4626 C   0  0  0  0  0  0  0  0  0  0  0  0
   -4.9611    3.6541   -2.0336 O   0  0  0  0  0  0  0  0  0  0  0  0
   -4.2641    1.4797   -1.4658 C   0  0  0  0  0  0  0  0  0  0  0  0
   -3.3421    0.7548   -0.8184 C   0  0  0  0  0  0  0  0  0  0  0  0
   -3.4000   -0.7183   -0.7739 C   0  0  0  0  0  0  0  0  0  0  0  0
   -2.2322   -1.4686   -1.0091 C   0  0  0  0  0  0  0  0  0  0  0  0
   -2.2530   -2.8643   -0.9516 C   0  0  0  0  0  0  0  0  0  0  0  0
   -3.4396   -3.5088   -0.6450 C   0  0  0  0  0  0  0  0  0  0  0  0
   -3.4582   -4.8718   -0.5817 O   0  0  0  0  0  0  0  0  0  0  0  0
   -4.5984   -2.7824   -0.3896 C   0  0  0  0  0  0  0  0  0  0  0  0
   -5.7246   -3.4858   -0.0691 O   0  0  0  0  0  0  0  0  0  0  0  0
   -4.5903   -1.3923   -0.4516 C   0  0  0  0  0  0  0  0  0  0  0  0
   -2.2539    1.2913   -0.1543 O   0  0  0  0  0  0  0  0  0  0  0  0
   -2.0966    2.6601   -0.1154 C   0  0  0  0  0  0  0  0  0  0  0  0
    0.9175    1.5425    0.5196 C   0  0  0  0  0  0  0  0  0  0  0  0
    2.9561   -1.4169    0.7656 O   0  0  0  0  0  0  0  0  0  0  0  0
    3.8728   -2.2069    0.1166 C   0  0  0  0  0  0  0  0  0  0  0  0
    3.9854   -3.5319    0.5400 C   0  0  0  0  0  0  0  0  0  0  0  0
    4.9038   -4.3742   -0.0814 C   0  0  0  0  0  0  0  0  0  0  0  0
    4.9913   -5.6578    0.3701 O   0  0  0  0  0  0  0  0  0  0  0  0
    5.7057   -3.9187   -1.1255 C   0  0  0  0  0  0  0  0  0  0  0  0
    5.5860   -2.5960   -1.5458 C   0  0  0  0  0  0  0  0  0  0  0  0
    6.3934   -2.2026   -2.5794 O   0  0  0  0  0  0  0  0  0  0  0  0
    4.6735   -1.7378   -0.9222 C   0  0  0  0  0  0  0  0  0  0  0  0
    3.4562    1.5153   -0.8964 H   0  0  0  0  0  0  0  0  0  0  0  0
    2.4208   -0.1740    3.0507 H   0  0  0  0  0  0  0  0  0  0  0  0
    0.7420    1.0626    4.3600 H   0  0  0  0  0  0  0  0  0  0  0  0
   -0.8353    2.5990    3.2458 H   0  0  0  0  0  0  0  0  0  0  0  0
    0.8168    4.4836    1.6542 H   0  0  0  0  0  0  0  0  0  0  0  0
   -1.5737    6.5011    0.0689 H   0  0  0  0  0  0  0  0  0  0  0  0
   -4.3725    5.3088   -1.7201 H   0  0  0  0  0  0  0  0  0  0  0  0
   -5.1019    1.0576   -2.0056 H   0  0  0  0  0  0  0  0  0  0  0  0
   -1.2919   -0.9700   -1.2397 H   0  0  0  0  0  0  0  0  0  0  0  0
   -1.3499   -3.4392   -1.1365 H   0  0  0  0  0  0  0  0  0  0  0  0
   -4.3809   -5.0941   -0.3463 H   0  0  0  0  0  0  0  0  0  0  0  0
   -6.4319   -2.8554    0.1479 H   0  0  0  0  0  0  0  0  0  0  0  0
   -5.4934   -0.8297   -0.2351 H   0  0  0  0  0  0  0  0  0  0  0  0
    0.9422    1.6663   -0.5631 H   0  0  0  0  0  0  0  0  0  0  0  0
    3.3656   -3.9071    1.3499 H   0  0  0  0  0  0  0  0  0  0  0  0
    5.6857   -6.1200   -0.1321 H   0  0  0  0  0  0  0  0  0  0  0  0
    6.4205   -4.5704   -1.6181 H   0  0  0  0  0  0  0  0  0  0  0  0
    6.2120   -1.2531   -2.7677 H   0  0  0  0  0  0  0  0  0  0  0  0
  1  2  2  0
  2  3  1  0
  3  4  2  0
  4  5  1  0
  5  6  1  0
  6  7  2  0
  7  8  1  0
  8  9  2  0
  9 10  1  0
 10 11  2  0
 11 12  1  0
 11 13  1  0
 13 14  2  0
 14 15  1  0
 14 16  1  0
 16 17  1  0
 17 18  2  0
 17 19  1  0
 19 20  2  0
 20 21  1  0
 21 22  1  0
 22 23  2  0
 23 24  1  0
 24 25  1  0
 24 26  2  0
 26 27  1  0
 26 28  1  0
 20 29  1  0
 29 30  1  0
  9 31  1  0
  4 32  1  0
 32 33  1  0
 33 34  2  0
 34 35  1  0
 35 36  1  0
 35 37  2  0
 37 38  1  0
 38 39  1  0
 38 40  2  0
 40  2  1  0
 31  5  2  0
 40 33  1  0
 30 10  1  0
 30 16  2  0
 28 21  2  0
  3 41  1  0
  6 42  1  0
  7 43  1  0
  8 44  1  0
 12 45  1  0
 13 46  1  0
 15 47  1  0
 19 48  1  0
 22 49  1  0
 23 50  1  0
 25 51  1  0
 27 52  1  0
 28 53  1  0
 31 54  1  0
 34 55  1  0
 36 56  1  0
 37 57  1  0
 39 58  1  0
M  END
$$$$
