
     RDKit          3D

 48 52  0  0  0  0  0  0  0  0999 V2000
   -9.4178    0.9481    0.3800 C   0  0  0  0  0  0  0  0  0  0  0  0
   -8.0854    0.5123   -0.1568 C   0  0  0  0  0  0  0  0  0  0  0  0
   -8.0164   -0.3407   -1.2690 C   0  0  0  0  0  0  0  0  0  0  0  0
   -6.7914   -0.7918   -1.7781 C   0  0  0  0  0  0  0  0  0  0  0  0
   -5.6424   -0.3589   -1.1156 C   0  0  0  0  0  0  0  0  0  0  0  0
   -4.3084   -0.5928   -1.3254 N   0  0  0  0  0  0  0  0  0  0  0  0
   -3.5781    0.0773   -0.3681 C   0  0  0  0  0  0  0  0  0  0  0  0
   -2.1124    0.0632   -0.2733 C   0  0  0  0  0  0  0  0  0  0  0  0
   -1.4869    0.8239    0.7239 C   0  0  0  0  0  0  0  0  0  0  0  0
   -0.0930    0.8448    0.8531 C   0  0  0  0  0  0  0  0  0  0  0  0
    0.7231    0.1024   -0.0112 C   0  0  0  0  0  0  0  0  0  0  0  0
    2.1887    0.1234    0.1206 C   0  0  0  0  0  0  0  0  0  0  0  0
    2.8973    1.3337    0.1327 C   0  0  0  0  0  0  0  0  0  0  0  0
    4.2921    1.3543    0.2573 C   0  0  0  0  0  0  0  0  0  0  0  0
    5.0269    0.1655    0.3745 C   0  0  0  0  0  0  0  0  0  0  0  0
    6.4929    0.1873    0.5064 C   0  0  0  0  0  0  0  0  0  0  0  0
    7.1188    0.9527    1.5046 C   0  0  0  0  0  0  0  0  0  0  0  0
    8.5105    0.9736    1.6312 C   0  0  0  0  0  0  0  0  0  0  0  0
    9.3010    0.2292    0.7595 C   0  0  0  0  0  0  0  0  0  0  0  0
    8.7014   -0.5360   -0.2375 C   0  0  0  0  0  0  0  0  0  0  0  0
    7.3095   -0.5566   -0.3618 C   0  0  0  0  0  0  0  0  0  0  0  0
    4.3182   -1.0447    0.3629 C   0  0  0  0  0  0  0  0  0  0  0  0
    2.9234   -1.0655    0.2383 C   0  0  0  0  0  0  0  0  0  0  0  0
    0.0954   -0.6606   -1.0074 C   0  0  0  0  0  0  0  0  0  0  0  0
   -1.3007   -0.6809   -1.1387 C   0  0  0  0  0  0  0  0  0  0  0  0
   -4.3973    0.7297    0.4402 N   0  0  0  0  0  0  0  0  0  0  0  0
   -5.6690    0.4720   -0.0061 C   0  0  0  0  0  0  0  0  0  0  0  0
   -6.9037    0.9144    0.4910 C   0  0  0  0  0  0  0  0  0  0  0  0
   -9.3433    1.9282    0.8629 H   0  0  0  0  0  0  0  0  0  0  0  0
  -10.1527    1.0391   -0.4268 H   0  0  0  0  0  0  0  0  0  0  0  0
   -9.7823    0.2201    1.1113 H   0  0  0  0  0  0  0  0  0  0  0  0
   -8.9344   -0.6654   -1.7569 H   0  0  0  0  0  0  0  0  0  0  0  0
   -6.7484   -1.4467   -2.6412 H   0  0  0  0  0  0  0  0  0  0  0  0
   -3.9280   -1.1625   -2.0636 H   0  0  0  0  0  0  0  0  0  0  0  0
   -2.0904    1.4105    1.4159 H   0  0  0  0  0  0  0  0  0  0  0  0
    0.3487    1.4416    1.6487 H   0  0  0  0  0  0  0  0  0  0  0  0
    2.3671    2.2787    0.0309 H   0  0  0  0  0  0  0  0  0  0  0  0
    4.8045    2.3144    0.2480 H   0  0  0  0  0  0  0  0  0  0  0  0
    6.5194    1.5327    2.2037 H   0  0  0  0  0  0  0  0  0  0  0  0
    8.9745    1.5695    2.4126 H   0  0  0  0  0  0  0  0  0  0  0  0
   10.3833    0.2454    0.8571 H   0  0  0  0  0  0  0  0  0  0  0  0
    9.3153   -1.1158   -0.9216 H   0  0  0  0  0  0  0  0  0  0  0  0
    6.8622   -1.1522   -1.1550 H   0  0  0  0  0  0  0  0  0  0  0  0
    4.8490   -1.9889    0.4682 H   0  0  0  0  0  0  0  0  0  0  0  0
    2.4115   -2.0257    0.2510 H   0  0  0  0  0  0  0  0  0  0  0  0
    0.6964   -1.2418   -1.7048 H   0  0  0  0  0  0  0  0  0  0  0  0
   -1.7231   -1.2903   -1.9311 H   0  0  0  0  0  0  0  0  0  0  0  0
   -6.9254    1.5586    1.3634 H   0  0  0  0  0  0  0  0  0  0  0  0
  1  2  1  0
  2  3  2  0
  3  4  1  0
  4  5  2  0
  5  6  1  0
  6  7  1  0
  7  8  1  0
  8  9  1  0
  9 10  2  0
 10 11  1  0
 11 12  1  0
 12 13  1  0
 13 14  2  0
 14 15  1  0
 15 16  1  0
 16 17  2  0
 17 18  1  0
 18 19  2  0
 19 20  1  0
 20 21  2  0
 15 22  2  0
 22 23  1  0
 11 24  2  0
 24 25  1  0
  7 26  2  0
 26 27  1  0
 27 28  2  0
 28  2  1  0
 27  5  1  0
 25  8  2  0
 23 12  2  0
 21 16  1  0
  1 29  1  0
  1 30  1  0
  1 31  1  0
  3 32  1  0
  4 33  1  0
  6 34  1  0
  9 35  1  0
 10 36  1  0
 13 37  1  0
 14 38  1  0
 17 39  1  0
 18 40  1  0
 19 41  1  0
 20 42  1  0
 21 43  1  0
 22 44  1  0
 23 45  1  0
 24 46  1  0
 25 47  1  0
 28 48  1  0
M  END
$$$$
