
     RDKit          3D

 34 36  0  0  0  0  0  0  0  0999 V2000
   -5.4864    1.1737    0.7605 C   0  0  0  0  0  0  0  0  0  0  0  0
   -4.0673    1.2091    0.8129 O   0  0  0  0  0  0  0  0  0  0  0  0
   -3.3650    0.2316    0.1633 C   0  0  0  0  0  0  0  0  0  0  0  0
   -3.9722   -0.8123   -0.5479 C   0  0  0  0  0  0  0  0  0  0  0  0
   -3.1961   -1.7746   -1.1887 C   0  0  0  0  0  0  0  0  0  0  0  0
   -3.8473   -2.7632   -1.8654 O   0  0  0  0  0  0  0  0  0  0  0  0
   -1.8116   -1.7247   -1.1375 C   0  0  0  0  0  0  0  0  0  0  0  0
   -1.1964   -0.6901   -0.4313 C   0  0  0  0  0  0  0  0  0  0  0  0
    0.1772   -0.7130   -0.4268 O   0  0  0  0  0  0  0  0  0  0  0  0
    0.8526    0.2993    0.2276 C   0  0  0  0  0  0  0  0  0  0  0  0
    2.3224    0.1888    0.1602 C   0  0  0  0  0  0  0  0  0  0  0  0
    2.9405   -1.0640    0.3354 C   0  0  0  0  0  0  0  0  0  0  0  0
    4.3321   -1.2006    0.2682 C   0  0  0  0  0  0  0  0  0  0  0  0
    5.1087   -0.0782    0.0174 C   0  0  0  0  0  0  0  0  0  0  0  0
    6.4718   -0.1431   -0.0608 O   0  0  0  0  0  0  0  0  0  0  0  0
    4.5076    1.1633   -0.1668 C   0  0  0  0  0  0  0  0  0  0  0  0
    5.2786    2.2621   -0.4197 O   0  0  0  0  0  0  0  0  0  0  0  0
    3.1275    1.3076   -0.1006 C   0  0  0  0  0  0  0  0  0  0  0  0
    0.2507    1.2910    0.8948 C   0  0  0  0  0  0  0  0  0  0  0  0
   -1.2211    1.3527    0.9463 C   0  0  0  0  0  0  0  0  0  0  0  0
   -1.7463    2.2610    1.5757 O   0  0  0  0  0  0  0  0  0  0  0  0
   -1.9583    0.2887    0.2193 C   0  0  0  0  0  0  0  0  0  0  0  0
   -5.8634    2.0295    1.3288 H   0  0  0  0  0  0  0  0  0  0  0  0
   -5.8461    1.2739   -0.2688 H   0  0  0  0  0  0  0  0  0  0  0  0
   -5.8761    0.2649    1.2306 H   0  0  0  0  0  0  0  0  0  0  0  0
   -5.0508   -0.9045   -0.6234 H   0  0  0  0  0  0  0  0  0  0  0  0
   -3.1938   -3.3537   -2.2765 H   0  0  0  0  0  0  0  0  0  0  0  0
   -1.2007   -2.4711   -1.6351 H   0  0  0  0  0  0  0  0  0  0  0  0
    2.3358   -1.9469    0.5356 H   0  0  0  0  0  0  0  0  0  0  0  0
    4.7786   -2.1789    0.4130 H   0  0  0  0  0  0  0  0  0  0  0  0
    6.7418   -1.0645    0.0948 H   0  0  0  0  0  0  0  0  0  0  0  0
    6.1966    1.9247   -0.4190 H   0  0  0  0  0  0  0  0  0  0  0  0
    2.6947    2.2907   -0.2646 H   0  0  0  0  0  0  0  0  0  0  0  0
    0.7817    2.0708    1.4265 H   0  0  0  0  0  0  0  0  0  0  0  0
  1  2  1  0
  2  3  1  0
  3  4  2  0
  4  5  1  0
  5  6  1  0
  5  7  2  0
  7  8  1  0
  8  9  1  0
  9 10  1  0
 10 11  1  0
 11 12  1  0
 12 13  2  0
 13 14  1  0
 14 15  1  0
 14 16  2  0
 16 17  1  0
 16 18  1  0
 10 19  2  0
 19 20  1  0
 20 21  2  0
 20 22  1  0
 22  3  1  0
 22  8  2  0
 18 11  2  0
  1 23  1  0
  1 24  1  0
  1 25  1  0
  4 26  1  0
  6 27  1  0
  7 28  1  0
 12 29  1  0
 13 30  1  0
 15 31  1  0
 17 32  1  0
 18 33  1  0
 19 34  1  0
M  END
$$$$
