
     RDKit          3D

 29 31  0  0  0  0  0  0  0  0999 V2000
    1.9011    2.5225   -1.4317 O   0  0  0  0  0  0  0  0  0  0  0  0
    1.3286    1.5773   -0.9003 C   0  0  0  0  0  0  0  0  0  0  0  0
   -0.1317    1.4246   -0.9652 C   0  0  0  0  0  0  0  0  0  0  0  0
   -0.7030    0.3740   -0.3582 C   0  0  0  0  0  0  0  0  0  0  0  0
   -2.1628    0.1570   -0.3941 C   0  0  0  0  0  0  0  0  0  0  0  0
   -3.0676    1.2129   -0.1893 C   0  0  0  0  0  0  0  0  0  0  0  0
   -4.4462    0.9842   -0.2164 C   0  0  0  0  0  0  0  0  0  0  0  0
   -4.9245   -0.3001   -0.4421 C   0  0  0  0  0  0  0  0  0  0  0  0
   -6.2456   -0.5177   -0.4671 F   0  0  0  0  0  0  0  0  0  0  0  0
   -4.0514   -1.3618   -0.6379 C   0  0  0  0  0  0  0  0  0  0  0  0
   -2.6731   -1.1344   -0.6105 C   0  0  0  0  0  0  0  0  0  0  0  0
   -0.0014   -0.6074    0.3257 O   0  0  0  0  0  0  0  0  0  0  0  0
    1.3643   -0.4985    0.4099 C   0  0  0  0  0  0  0  0  0  0  0  0
    2.0395   -1.4962    1.1120 C   0  0  0  0  0  0  0  0  0  0  0  0
    3.4258   -1.4351    1.2271 C   0  0  0  0  0  0  0  0  0  0  0  0
    4.0470   -2.4307    1.9215 O   0  0  0  0  0  0  0  0  0  0  0  0
    4.1499   -0.3937    0.6525 C   0  0  0  0  0  0  0  0  0  0  0  0
    3.4699    0.6001   -0.0477 C   0  0  0  0  0  0  0  0  0  0  0  0
    4.2295    1.6001   -0.5928 O   0  0  0  0  0  0  0  0  0  0  0  0
    2.0771    0.5488   -0.1696 C   0  0  0  0  0  0  0  0  0  0  0  0
   -0.6769    2.1777   -1.5190 H   0  0  0  0  0  0  0  0  0  0  0  0
   -2.7116    2.2219    0.0073 H   0  0  0  0  0  0  0  0  0  0  0  0
   -5.1470    1.7977   -0.0576 H   0  0  0  0  0  0  0  0  0  0  0  0
   -4.4458   -2.3584   -0.8087 H   0  0  0  0  0  0  0  0  0  0  0  0
   -1.9990   -1.9749   -0.7654 H   0  0  0  0  0  0  0  0  0  0  0  0
    1.4923   -2.3165    1.5682 H   0  0  0  0  0  0  0  0  0  0  0  0
    5.0045   -2.2613    1.9250 H   0  0  0  0  0  0  0  0  0  0  0  0
    5.2307   -0.3387    0.7374 H   0  0  0  0  0  0  0  0  0  0  0  0
    3.6271    2.2267   -1.0549 H   0  0  0  0  0  0  0  0  0  0  0  0
  1  2  2  0
  2  3  1  0
  3  4  2  0
  4  5  1  0
  5  6  1  0
  6  7  2  0
  7  8  1  0
  8  9  1  0
  8 10  2  0
 10 11  1  0
  4 12  1  0
 12 13  1  0
 13 14  2  0
 14 15  1  0
 15 16  1  0
 15 17  2  0
 17 18  1  0
 18 19  1  0
 18 20  2  0
 20  2  1  0
 11  5  2  0
 20 13  1  0
  3 21  1  0
  6 22  1  0
  7 23  1  0
 10 24  1  0
 11 25  1  0
 14 26  1  0
 16 27  1  0
 17 28  1  0
 19 29  1  0
M  END
$$$$
