
     RDKit          3D

 42 46  0  0  0  0  0  0  0  0999 V2000
    8.7246   -0.6283    0.4262 N   0  0  0  0  0  0  0  0  0  0  0  0
    7.7414    0.1815    0.9258 C   0  0  0  0  0  0  0  0  0  0  0  0
    7.9883    0.9935    1.8075 O   0  0  0  0  0  0  0  0  0  0  0  0
    6.3683   -0.0004    0.3863 C   0  0  0  0  0  0  0  0  0  0  0  0
    6.1469   -0.5143   -0.9017 C   0  0  0  0  0  0  0  0  0  0  0  0
    4.8502   -0.6836   -1.4051 C   0  0  0  0  0  0  0  0  0  0  0  0
    3.8018   -0.3107   -0.5630 C   0  0  0  0  0  0  0  0  0  0  0  0
    2.4393   -0.3321   -0.7183 N   0  0  0  0  0  0  0  0  0  0  0  0
    1.8492    0.1547    0.4279 C   0  0  0  0  0  0  0  0  0  0  0  0
    0.3997    0.2829    0.6314 C   0  0  0  0  0  0  0  0  0  0  0  0
   -0.0690    0.8657    1.8238 C   0  0  0  0  0  0  0  0  0  0  0  0
   -1.4345    1.0273    2.0978 C   0  0  0  0  0  0  0  0  0  0  0  0
   -2.3171    0.5756    1.1198 C   0  0  0  0  0  0  0  0  0  0  0  0
   -3.6851    0.5664    1.0386 N   0  0  0  0  0  0  0  0  0  0  0  0
   -4.0599   -0.0040   -0.1589 C   0  0  0  0  0  0  0  0  0  0  0  0
   -5.4500   -0.1849   -0.5986 C   0  0  0  0  0  0  0  0  0  0  0  0
   -6.5511    0.1715    0.1950 C   0  0  0  0  0  0  0  0  0  0  0  0
   -7.8579   -0.0196   -0.2678 C   0  0  0  0  0  0  0  0  0  0  0  0
   -8.0823   -0.5690   -1.5277 C   0  0  0  0  0  0  0  0  0  0  0  0
   -7.0019   -0.9293   -2.3275 C   0  0  0  0  0  0  0  0  0  0  0  0
   -5.6975   -0.7383   -1.8648 C   0  0  0  0  0  0  0  0  0  0  0  0
   -2.9813   -0.3546   -0.8412 N   0  0  0  0  0  0  0  0  0  0  0  0
   -1.9038   -0.0054   -0.0678 C   0  0  0  0  0  0  0  0  0  0  0  0
   -0.5322   -0.1588   -0.3247 C   0  0  0  0  0  0  0  0  0  0  0  0
    2.7840    0.4891    1.3015 N   0  0  0  0  0  0  0  0  0  0  0  0
    3.9892    0.2114    0.7088 C   0  0  0  0  0  0  0  0  0  0  0  0
    5.2897    0.3804    1.2004 C   0  0  0  0  0  0  0  0  0  0  0  0
    9.6124   -0.5796    0.9106 H   0  0  0  0  0  0  0  0  0  0  0  0
    8.5081   -1.4913   -0.0511 H   0  0  0  0  0  0  0  0  0  0  0  0
    6.9856   -0.7660   -1.5466 H   0  0  0  0  0  0  0  0  0  0  0  0
    4.6778   -1.0747   -2.4021 H   0  0  0  0  0  0  0  0  0  0  0  0
    1.9505   -0.6473   -1.5413 H   0  0  0  0  0  0  0  0  0  0  0  0
    0.6525    1.2079    2.5675 H   0  0  0  0  0  0  0  0  0  0  0  0
   -1.7720    1.4800    3.0235 H   0  0  0  0  0  0  0  0  0  0  0  0
   -4.3116    0.9231    1.7423 H   0  0  0  0  0  0  0  0  0  0  0  0
   -6.4239    0.6001    1.1838 H   0  0  0  0  0  0  0  0  0  0  0  0
   -8.7021    0.2606    0.3575 H   0  0  0  0  0  0  0  0  0  0  0  0
   -9.0978   -0.7171   -1.8859 H   0  0  0  0  0  0  0  0  0  0  0  0
   -7.1692   -1.3594   -3.3116 H   0  0  0  0  0  0  0  0  0  0  0  0
   -4.8625   -1.0257   -2.5025 H   0  0  0  0  0  0  0  0  0  0  0  0
   -0.2437   -0.6200   -1.2597 H   0  0  0  0  0  0  0  0  0  0  0  0
    5.4466    0.7932    2.1918 H   0  0  0  0  0  0  0  0  0  0  0  0
  1  2  1  0
  2  3  2  0
  2  4  1  0
  4  5  2  0
  5  6  1  0
  6  7  2  0
  7  8  1  0
  8  9  1  0
  9 10  1  0
 10 11  2  0
 11 12  1  0
 12 13  2  0
 13 14  1  0
 14 15  1  0
 15 16  1  0
 16 17  2  0
 17 18  1  0
 18 19  2  0
 19 20  1  0
 20 21  2  0
 15 22  2  0
 22 23  1  0
 23 24  2  0
  9 25  2  0
 25 26  1  0
 26 27  2  0
 27  4  1  0
 26  7  1  0
 24 10  1  0
 23 13  1  0
 21 16  1  0
  1 28  1  0
  1 29  1  0
  5 30  1  0
  6 31  1  0
  8 32  1  0
 11 33  1  0
 12 34  1  0
 14 35  1  0
 17 36  1  0
 18 37  1  0
 19 38  1  0
 20 39  1  0
 21 40  1  0
 24 41  1  0
 27 42  1  0
M  END
$$$$
