
     RDKit          3D

 31 33  0  0  0  0  0  0  0  0999 V2000
   -2.4206   -2.0157    2.0774 O   0  0  0  0  0  0  0  0  0  0  0  0
   -1.8059   -1.2849    1.3086 C   0  0  0  0  0  0  0  0  0  0  0  0
   -0.3441   -1.3610    1.1768 C   0  0  0  0  0  0  0  0  0  0  0  0
    0.2749   -0.5355    0.3205 C   0  0  0  0  0  0  0  0  0  0  0  0
    1.7405   -0.5562    0.1513 C   0  0  0  0  0  0  0  0  0  0  0  0
    2.4396   -1.7680   -0.0025 C   0  0  0  0  0  0  0  0  0  0  0  0
    3.8268   -1.7771   -0.1724 C   0  0  0  0  0  0  0  0  0  0  0  0
    4.5137   -0.5741   -0.1935 C   0  0  0  0  0  0  0  0  0  0  0  0
    5.8683   -0.5835   -0.3593 O   0  0  0  0  0  0  0  0  0  0  0  0
    3.8378    0.6338   -0.0509 C   0  0  0  0  0  0  0  0  0  0  0  0
    4.5792    1.7829   -0.0831 O   0  0  0  0  0  0  0  0  0  0  0  0
    2.4566    0.6531    0.1177 C   0  0  0  0  0  0  0  0  0  0  0  0
   -0.3716    0.4152   -0.4543 O   0  0  0  0  0  0  0  0  0  0  0  0
   -1.7393    0.5079   -0.3699 C   0  0  0  0  0  0  0  0  0  0  0  0
   -2.3593    1.4603   -1.1812 C   0  0  0  0  0  0  0  0  0  0  0  0
   -3.7445    1.5974   -1.1306 C   0  0  0  0  0  0  0  0  0  0  0  0
   -4.3945    2.5125   -1.9047 O   0  0  0  0  0  0  0  0  0  0  0  0
   -4.5142    0.8025   -0.2853 C   0  0  0  0  0  0  0  0  0  0  0  0
   -3.8908   -0.1463    0.5202 C   0  0  0  0  0  0  0  0  0  0  0  0
   -4.6964   -0.8998    1.3301 O   0  0  0  0  0  0  0  0  0  0  0  0
   -2.5013   -0.2952    0.4777 C   0  0  0  0  0  0  0  0  0  0  0  0
    0.1657   -2.0870    1.7972 H   0  0  0  0  0  0  0  0  0  0  0  0
    1.9114   -2.7193   -0.0047 H   0  0  0  0  0  0  0  0  0  0  0  0
    4.3639   -2.7134   -0.2915 H   0  0  0  0  0  0  0  0  0  0  0  0
    6.1256    0.3599   -0.3428 H   0  0  0  0  0  0  0  0  0  0  0  0
    3.9783    2.5386    0.0352 H   0  0  0  0  0  0  0  0  0  0  0  0
    1.9300    1.5962    0.2307 H   0  0  0  0  0  0  0  0  0  0  0  0
   -1.7568    2.0783   -1.8392 H   0  0  0  0  0  0  0  0  0  0  0  0
   -3.7501    2.9812   -2.4603 H   0  0  0  0  0  0  0  0  0  0  0  0
   -5.5939    0.9203   -0.2551 H   0  0  0  0  0  0  0  0  0  0  0  0
   -4.1291   -1.5229    1.8378 H   0  0  0  0  0  0  0  0  0  0  0  0
  1  2  2  0
  2  3  1  0
  3  4  2  0
  4  5  1  0
  5  6  1  0
  6  7  2  0
  7  8  1  0
  8  9  1  0
  8 10  2  0
 10 11  1  0
 10 12  1  0
  4 13  1  0
 13 14  1  0
 14 15  2  0
 15 16  1  0
 16 17  1  0
 16 18  2  0
 18 19  1  0
 19 20  1  0
 19 21  2  0
 21  2  1  0
 12  5  2  0
 21 14  1  0
  3 22  1  0
  6 23  1  0
  7 24  1  0
  9 25  1  0
 11 26  1  0
 12 27  1  0
 15 28  1  0
 17 29  1  0
 18 30  1  0
 20 31  1  0
M  END
$$$$
