
     RDKit          3D

 27 29  0  0  0  0  0  0  0  0999 V2000
    0.7789    2.5606    0.4630 N   0  0  0  0  0  0  0  0  0  0  0  0
    0.5845    1.1578    0.2974 C   0  0  0  0  0  0  0  0  0  0  0  0
    1.6784    0.2944    0.0268 C   0  0  0  0  0  0  0  0  0  0  0  0
    3.0387    0.6969    0.0178 C   0  0  0  0  0  0  0  0  0  0  0  0
    4.0633   -0.2134   -0.2406 C   0  0  0  0  0  0  0  0  0  0  0  0
    3.7495   -1.5390   -0.4966 C   0  0  0  0  0  0  0  0  0  0  0  0
    2.4133   -1.9417   -0.4995 C   0  0  0  0  0  0  0  0  0  0  0  0
    1.3753   -1.0538   -0.2495 C   0  0  0  0  0  0  0  0  0  0  0  0
    0.1223   -1.5287   -0.2996 N   0  0  0  0  0  0  0  0  0  0  0  0
   -0.9081   -0.6997   -0.1006 C   0  0  0  0  0  0  0  0  0  0  0  0
   -2.1889   -1.2227   -0.1946 C   0  0  0  0  0  0  0  0  0  0  0  0
   -3.3140   -0.4114   -0.0081 C   0  0  0  0  0  0  0  0  0  0  0  0
   -4.6558   -0.9939   -0.1160 N   0  0  0  0  0  0  0  0  0  0  0  0
   -5.6252   -0.2384    0.0435 O   0  0  0  0  0  0  0  0  0  0  0  0
   -4.7427   -2.2050   -0.3615 O   0  0  0  0  0  0  0  0  0  0  0  0
   -3.1693    0.9453    0.2795 C   0  0  0  0  0  0  0  0  0  0  0  0
   -1.8851    1.4773    0.3783 C   0  0  0  0  0  0  0  0  0  0  0  0
   -0.7401    0.6676    0.1889 C   0  0  0  0  0  0  0  0  0  0  0  0
    0.7271    3.0253   -0.4428 H   0  0  0  0  0  0  0  0  0  0  0  0
    1.6654    2.7812    0.9060 H   0  0  0  0  0  0  0  0  0  0  0  0
    3.3186    1.7278    0.2127 H   0  0  0  0  0  0  0  0  0  0  0  0
    5.1001    0.1134   -0.2399 H   0  0  0  0  0  0  0  0  0  0  0  0
    4.5353   -2.2621   -0.6985 H   0  0  0  0  0  0  0  0  0  0  0  0
    2.1732   -2.9821   -0.7093 H   0  0  0  0  0  0  0  0  0  0  0  0
   -2.2952   -2.2825   -0.4198 H   0  0  0  0  0  0  0  0  0  0  0  0
   -4.0293    1.5935    0.4335 H   0  0  0  0  0  0  0  0  0  0  0  0
   -1.7704    2.5333    0.6189 H   0  0  0  0  0  0  0  0  0  0  0  0
  1  2  1  0
  2  3  2  0
  3  4  1  0
  4  5  2  0
  5  6  1  0
  6  7  2  0
  7  8  1  0
  8  9  2  0
  9 10  1  0
 10 11  2  0
 11 12  1  0
 12 13  1  0
 13 14  2  0
 13 15  1  0
 12 16  2  0
 16 17  1  0
 17 18  2  0
 18  2  1  0
  8  3  1  0
 18 10  1  0
  1 19  1  0
  1 20  1  0
  4 21  1  0
  5 22  1  0
  6 23  1  0
  7 24  1  0
 11 25  1  0
 16 26  1  0
 17 27  1  0
M  CHG  2  13   1  15  -1
M  END
$$$$
