
     RDKit          3D

 31 34  0  0  0  0  0  0  0  0999 V2000
   -5.9195    1.1672    0.9976 C   0  0  0  0  0  0  0  0  0  0  0  0
   -4.5711    0.6795    0.6272 C   0  0  0  0  0  0  0  0  0  0  0  0
   -3.4174    1.1564    1.0440 N   0  0  0  0  0  0  0  0  0  0  0  0
   -2.4543    0.3870    0.4376 C   0  0  0  0  0  0  0  0  0  0  0  0
   -1.0570    0.4556    0.5299 C   0  0  0  0  0  0  0  0  0  0  0  0
   -0.2668   -0.4496   -0.2035 C   0  0  0  0  0  0  0  0  0  0  0  0
    1.1948   -0.3556   -0.0967 C   0  0  0  0  0  0  0  0  0  0  0  0
    1.8625    0.2992    0.8377 N   0  0  0  0  0  0  0  0  0  0  0  0
    3.1937    0.1320    0.5517 C   0  0  0  0  0  0  0  0  0  0  0  0
    4.3255    0.6116    1.2257 C   0  0  0  0  0  0  0  0  0  0  0  0
    5.5924    0.2972    0.7174 C   0  0  0  0  0  0  0  0  0  0  0  0
    5.7278   -0.4773   -0.4379 C   0  0  0  0  0  0  0  0  0  0  0  0
    4.6082   -0.9638   -1.1238 C   0  0  0  0  0  0  0  0  0  0  0  0
    3.3594   -0.6358   -0.5922 C   0  0  0  0  0  0  0  0  0  0  0  0
    2.0793   -0.9264   -0.9860 N   0  0  0  0  0  0  0  0  0  0  0  0
   -0.8977   -1.4176   -1.0059 C   0  0  0  0  0  0  0  0  0  0  0  0
   -2.2947   -1.5043   -1.1095 C   0  0  0  0  0  0  0  0  0  0  0  0
   -3.0342   -0.5808   -0.3722 C   0  0  0  0  0  0  0  0  0  0  0  0
   -4.3828   -0.3747   -0.2321 N   0  0  0  0  0  0  0  0  0  0  0  0
   -5.8471    2.0117    1.6897 H   0  0  0  0  0  0  0  0  0  0  0  0
   -6.4661    1.4998    0.1099 H   0  0  0  0  0  0  0  0  0  0  0  0
   -6.4950    0.3747    1.4858 H   0  0  0  0  0  0  0  0  0  0  0  0
   -0.6012    1.2094    1.1652 H   0  0  0  0  0  0  0  0  0  0  0  0
    4.2107    1.2130    2.1204 H   0  0  0  0  0  0  0  0  0  0  0  0
    6.4789    0.6628    1.2302 H   0  0  0  0  0  0  0  0  0  0  0  0
    6.7236   -0.7062   -0.8124 H   0  0  0  0  0  0  0  0  0  0  0  0
    4.7144   -1.5636   -2.0207 H   0  0  0  0  0  0  0  0  0  0  0  0
    1.8275   -1.4536   -1.8065 H   0  0  0  0  0  0  0  0  0  0  0  0
   -0.3116   -2.1457   -1.5609 H   0  0  0  0  0  0  0  0  0  0  0  0
   -2.7685   -2.2584   -1.7283 H   0  0  0  0  0  0  0  0  0  0  0  0
   -5.1137   -0.9062   -0.6814 H   0  0  0  0  0  0  0  0  0  0  0  0
  1  2  1  0
  2  3  2  0
  3  4  1  0
  4  5  2  0
  5  6  1  0
  6  7  1  0
  7  8  2  0
  8  9  1  0
  9 10  2  0
 10 11  1  0
 11 12  2  0
 12 13  1  0
 13 14  2  0
 14 15  1  0
  6 16  2  0
 16 17  1  0
 17 18  2  0
 18 19  1  0
 19  2  1  0
 18  4  1  0
 15  7  1  0
 14  9  1  0
  1 20  1  0
  1 21  1  0
  1 22  1  0
  5 23  1  0
 10 24  1  0
 11 25  1  0
 12 26  1  0
 13 27  1  0
 15 28  1  0
 16 29  1  0
 17 30  1  0
 19 31  1  0
M  END
$$$$
