
     RDKit          3D

 35 38  0  0  0  0  0  0  0  0999 V2000
    1.3392    0.4240    2.4105 N   0  0  0  0  0  0  0  0  0  0  0  0
    1.6720    0.4445    1.0241 C   0  0  0  0  0  0  0  0  0  0  0  0
    3.0235    0.5307    0.5964 C   0  0  0  0  0  0  0  0  0  0  0  0
    4.1330    0.7212    1.4606 C   0  0  0  0  0  0  0  0  0  0  0  0
    5.4333    0.8129    0.9642 C   0  0  0  0  0  0  0  0  0  0  0  0
    5.6507    0.7141   -0.4009 C   0  0  0  0  0  0  0  0  0  0  0  0
    4.5667    0.5170   -1.2575 C   0  0  0  0  0  0  0  0  0  0  0  0
    3.2636    0.4181   -0.7876 C   0  0  0  0  0  0  0  0  0  0  0  0
    2.2929    0.2033   -1.6861 N   0  0  0  0  0  0  0  0  0  0  0  0
    1.0269    0.0665   -1.2694 C   0  0  0  0  0  0  0  0  0  0  0  0
    0.0463   -0.1912   -2.2156 C   0  0  0  0  0  0  0  0  0  0  0  0
   -1.2975   -0.3589   -1.8636 C   0  0  0  0  0  0  0  0  0  0  0  0
   -1.7024   -0.2672   -0.5295 C   0  0  0  0  0  0  0  0  0  0  0  0
   -3.1133   -0.4353   -0.1443 C   0  0  0  0  0  0  0  0  0  0  0  0
   -3.7673    0.5235    0.6478 C   0  0  0  0  0  0  0  0  0  0  0  0
   -5.1071    0.3656    1.0133 C   0  0  0  0  0  0  0  0  0  0  0  0
   -5.8169   -0.7561    0.5932 C   0  0  0  0  0  0  0  0  0  0  0  0
   -5.1885   -1.7191   -0.1919 C   0  0  0  0  0  0  0  0  0  0  0  0
   -3.8489   -1.5591   -0.5573 C   0  0  0  0  0  0  0  0  0  0  0  0
   -0.7115   -0.0031    0.4284 C   0  0  0  0  0  0  0  0  0  0  0  0
    0.6529    0.1639    0.0801 C   0  0  0  0  0  0  0  0  0  0  0  0
    1.9901    0.9510    2.9822 H   0  0  0  0  0  0  0  0  0  0  0  0
    1.2877   -0.5395    2.7382 H   0  0  0  0  0  0  0  0  0  0  0  0
    3.9979    0.8009    2.5347 H   0  0  0  0  0  0  0  0  0  0  0  0
    6.2694    0.9621    1.6426 H   0  0  0  0  0  0  0  0  0  0  0  0
    6.6569    0.7847   -0.8054 H   0  0  0  0  0  0  0  0  0  0  0  0
    4.7440    0.4320   -2.3276 H   0  0  0  0  0  0  0  0  0  0  0  0
    0.3340   -0.2637   -3.2621 H   0  0  0  0  0  0  0  0  0  0  0  0
   -2.0261   -0.5474   -2.6494 H   0  0  0  0  0  0  0  0  0  0  0  0
   -3.2353    1.4136    0.9786 H   0  0  0  0  0  0  0  0  0  0  0  0
   -5.5944    1.1213    1.6238 H   0  0  0  0  0  0  0  0  0  0  0  0
   -6.8586   -0.8794    0.8772 H   0  0  0  0  0  0  0  0  0  0  0  0
   -5.7383   -2.5976   -0.5193 H   0  0  0  0  0  0  0  0  0  0  0  0
   -3.3753   -2.3303   -1.1615 H   0  0  0  0  0  0  0  0  0  0  0  0
   -0.9996    0.0770    1.4760 H   0  0  0  0  0  0  0  0  0  0  0  0
  1  2  1  0
  2  3  2  0
  3  4  1  0
  4  5  2  0
  5  6  1  0
  6  7  2  0
  7  8  1  0
  8  9  2  0
  9 10  1  0
 10 11  2  0
 11 12  1  0
 12 13  2  0
 13 14  1  0
 14 15  2  0
 15 16  1  0
 16 17  2  0
 17 18  1  0
 18 19  2  0
 13 20  1  0
 20 21  2  0
 21  2  1  0
  8  3  1  0
 21 10  1  0
 19 14  1  0
  1 22  1  0
  1 23  1  0
  4 24  1  0
  5 25  1  0
  6 26  1  0
  7 27  1  0
 11 28  1  0
 12 29  1  0
 15 30  1  0
 16 31  1  0
 17 32  1  0
 18 33  1  0
 19 34  1  0
 20 35  1  0
M  END
$$$$
