
     RDKit          3D

 29 31  0  0  0  0  0  0  0  0999 V2000
    1.8308    2.5282   -1.5515 O   0  0  0  0  0  0  0  0  0  0  0  0
    1.2937    1.5876   -0.9768 C   0  0  0  0  0  0  0  0  0  0  0  0
   -0.1617    1.3877   -1.0180 C   0  0  0  0  0  0  0  0  0  0  0  0
   -0.6933    0.3447   -0.3636 C   0  0  0  0  0  0  0  0  0  0  0  0
   -2.1457    0.0820   -0.3735 C   0  0  0  0  0  0  0  0  0  0  0  0
   -3.0806    1.1146   -0.1994 C   0  0  0  0  0  0  0  0  0  0  0  0
   -4.4534    0.8453   -0.2011 C   0  0  0  0  0  0  0  0  0  0  0  0
   -4.9028   -0.4625   -0.3716 C   0  0  0  0  0  0  0  0  0  0  0  0
   -6.9412   -0.8640   -0.3739 I   0  0  0  0  0  0  0  0  0  0  0  0
   -3.9907   -1.5024   -0.5364 C   0  0  0  0  0  0  0  0  0  0  0  0
   -2.6190   -1.2295   -0.5335 C   0  0  0  0  0  0  0  0  0  0  0  0
    0.0460   -0.5871    0.3495 O   0  0  0  0  0  0  0  0  0  0  0  0
    1.4084   -0.4329    0.4128 C   0  0  0  0  0  0  0  0  0  0  0  0
    2.1220   -1.3811    1.1451 C   0  0  0  0  0  0  0  0  0  0  0  0
    3.5069   -1.2730    1.2409 C   0  0  0  0  0  0  0  0  0  0  0  0
    4.1665   -2.2209    1.9660 O   0  0  0  0  0  0  0  0  0  0  0  0
    4.1919   -0.2331    0.6174 C   0  0  0  0  0  0  0  0  0  0  0  0
    3.4736    0.7109   -0.1127 C   0  0  0  0  0  0  0  0  0  0  0  0
    4.1957    1.7116   -0.7056 O   0  0  0  0  0  0  0  0  0  0  0  0
    2.0819    0.6121   -0.2157 C   0  0  0  0  0  0  0  0  0  0  0  0
   -0.7364    2.1010   -1.5941 H   0  0  0  0  0  0  0  0  0  0  0  0
   -2.7536    2.1409   -0.0460 H   0  0  0  0  0  0  0  0  0  0  0  0
   -5.1551    1.6643   -0.0632 H   0  0  0  0  0  0  0  0  0  0  0  0
   -4.3271   -2.5279   -0.6664 H   0  0  0  0  0  0  0  0  0  0  0  0
   -1.9207   -2.0544   -0.6638 H   0  0  0  0  0  0  0  0  0  0  0  0
    1.6056   -2.1991    1.6395 H   0  0  0  0  0  0  0  0  0  0  0  0
    5.1182   -2.0220    1.9513 H   0  0  0  0  0  0  0  0  0  0  0  0
    5.2713   -0.1416    0.6870 H   0  0  0  0  0  0  0  0  0  0  0  0
    3.5688    2.3006   -1.1844 H   0  0  0  0  0  0  0  0  0  0  0  0
  1  2  2  0
  2  3  1  0
  3  4  2  0
  4  5  1  0
  5  6  1  0
  6  7  2  0
  7  8  1  0
  8  9  1  0
  8 10  2  0
 10 11  1  0
  4 12  1  0
 12 13  1  0
 13 14  2  0
 14 15  1  0
 15 16  1  0
 15 17  2  0
 17 18  1  0
 18 19  1  0
 18 20  2  0
 20  2  1  0
 11  5  2  0
 20 13  1  0
  3 21  1  0
  6 22  1  0
  7 23  1  0
 10 24  1  0
 11 25  1  0
 14 26  1  0
 16 27  1  0
 17 28  1  0
 19 29  1  0
M  END
$$$$
