
     RDKit          3D

 52 58  0  0  0  0  0  0  0  0999 V2000
  -10.1580    0.1938    0.3733 C   0  0  0  0  0  0  0  0  0  0  0  0
   -9.6011   -1.0540    0.6410 C   0  0  0  0  0  0  0  0  0  0  0  0
   -8.2328   -1.2651    0.4503 C   0  0  0  0  0  0  0  0  0  0  0  0
   -7.3974   -0.2336   -0.0103 C   0  0  0  0  0  0  0  0  0  0  0  0
   -5.9550   -0.4563   -0.2117 C   0  0  0  0  0  0  0  0  0  0  0  0
   -5.4963   -1.5159   -1.0182 C   0  0  0  0  0  0  0  0  0  0  0  0
   -4.1326   -1.7601   -1.2362 C   0  0  0  0  0  0  0  0  0  0  0  0
   -3.2393   -0.8933   -0.6095 C   0  0  0  0  0  0  0  0  0  0  0  0
   -1.8704   -0.8257   -0.5949 N   0  0  0  0  0  0  0  0  0  0  0  0
   -1.4821    0.2367    0.1926 C   0  0  0  0  0  0  0  0  0  0  0  0
   -0.0871    0.6218    0.4471 C   0  0  0  0  0  0  0  0  0  0  0  0
    0.1707    1.7186    1.2909 C   0  0  0  0  0  0  0  0  0  0  0  0
    1.4705    2.1530    1.5873 C   0  0  0  0  0  0  0  0  0  0  0  0
    2.5090    1.4365    0.9978 C   0  0  0  0  0  0  0  0  0  0  0  0
    3.8725    1.5647    1.0543 N   0  0  0  0  0  0  0  0  0  0  0  0
    4.4472    0.5842    0.2741 C   0  0  0  0  0  0  0  0  0  0  0  0
    5.8917    0.4009    0.0859 C   0  0  0  0  0  0  0  0  0  0  0  0
    6.8460    1.2190    0.6954 C   0  0  0  0  0  0  0  0  0  0  0  0
    8.2095    0.9938    0.4770 C   0  0  0  0  0  0  0  0  0  0  0  0
    8.6530   -0.0353   -0.3408 C   0  0  0  0  0  0  0  0  0  0  0  0
    9.9761   -0.2145   -0.5221 N   0  0  0  0  0  0  0  0  0  0  0  0
   10.3366   -1.2346   -1.3302 C   0  0  0  0  0  0  0  0  0  0  0  0
    9.4090   -2.0528   -1.9405 C   0  0  0  0  0  0  0  0  0  0  0  0
    8.0802   -1.8867   -1.7693 N   0  0  0  0  0  0  0  0  0  0  0  0
    7.6983   -0.8732   -0.9656 C   0  0  0  0  0  0  0  0  0  0  0  0
    6.3463   -0.6392   -0.7407 C   0  0  0  0  0  0  0  0  0  0  0  0
    3.5010   -0.1595   -0.2740 N   0  0  0  0  0  0  0  0  0  0  0  0
    2.3050    0.3516    0.1611 C   0  0  0  0  0  0  0  0  0  0  0  0
    0.9964   -0.0688   -0.1244 C   0  0  0  0  0  0  0  0  0  0  0  0
   -2.5516    0.8456    0.6777 N   0  0  0  0  0  0  0  0  0  0  0  0
   -3.6392    0.1632    0.1930 C   0  0  0  0  0  0  0  0  0  0  0  0
   -5.0080    0.3905    0.3988 C   0  0  0  0  0  0  0  0  0  0  0  0
   -7.9798    1.0178   -0.2726 C   0  0  0  0  0  0  0  0  0  0  0  0
   -9.3481    1.2303   -0.0835 C   0  0  0  0  0  0  0  0  0  0  0  0
  -11.2218    0.3590    0.5219 H   0  0  0  0  0  0  0  0  0  0  0  0
  -10.2292   -1.8641    1.0022 H   0  0  0  0  0  0  0  0  0  0  0  0
   -7.8160   -2.2442    0.6780 H   0  0  0  0  0  0  0  0  0  0  0  0
   -6.2196   -2.1692   -1.5059 H   0  0  0  0  0  0  0  0  0  0  0  0
   -3.8009   -2.5795   -1.8640 H   0  0  0  0  0  0  0  0  0  0  0  0
   -1.2513   -1.4547   -1.0813 H   0  0  0  0  0  0  0  0  0  0  0  0
   -0.6690    2.2557    1.7348 H   0  0  0  0  0  0  0  0  0  0  0  0
    1.6438    3.0009    2.2405 H   0  0  0  0  0  0  0  0  0  0  0  0
    4.3673    2.2654    1.5828 H   0  0  0  0  0  0  0  0  0  0  0  0
    6.5658    2.0411    1.3466 H   0  0  0  0  0  0  0  0  0  0  0  0
    8.9454    1.6359    0.9558 H   0  0  0  0  0  0  0  0  0  0  0  0
   11.4014   -1.3761   -1.4739 H   0  0  0  0  0  0  0  0  0  0  0  0
    9.7076   -2.8692   -2.5876 H   0  0  0  0  0  0  0  0  0  0  0  0
    5.6245   -1.2931   -1.2290 H   0  0  0  0  0  0  0  0  0  0  0  0
    0.8723   -0.9185   -0.7824 H   0  0  0  0  0  0  0  0  0  0  0  0
   -5.3148    1.2127    1.0370 H   0  0  0  0  0  0  0  0  0  0  0  0
   -7.3666    1.8391   -0.6389 H   0  0  0  0  0  0  0  0  0  0  0  0
   -9.7788    2.2055   -0.2947 H   0  0  0  0  0  0  0  0  0  0  0  0
  1  2  2  0
  2  3  1  0
  3  4  2  0
  4  5  1  0
  5  6  2  0
  6  7  1  0
  7  8  2  0
  8  9  1  0
  9 10  1  0
 10 11  1  0
 11 12  2  0
 12 13  1  0
 13 14  2  0
 14 15  1  0
 15 16  1  0
 16 17  1  0
 17 18  2  0
 18 19  1  0
 19 20  2  0
 20 21  1  0
 21 22  2  0
 22 23  1  0
 23 24  2  0
 24 25  1  0
 25 26  2  0
 16 27  2  0
 27 28  1  0
 28 29  2  0
 10 30  2  0
 30 31  1  0
 31 32  2  0
  4 33  1  0
 33 34  2  0
 34  1  1  0
 32  5  1  0
 31  8  1  0
 29 11  1  0
 28 14  1  0
 26 17  1  0
 25 20  1  0
  1 35  1  0
  2 36  1  0
  3 37  1  0
  6 38  1  0
  7 39  1  0
  9 40  1  0
 12 41  1  0
 13 42  1  0
 15 43  1  0
 18 44  1  0
 19 45  1  0
 22 46  1  0
 23 47  1  0
 26 48  1  0
 29 49  1  0
 32 50  1  0
 33 51  1  0
 34 52  1  0
M  END
$$$$
