
     RDKit          3D

 40 41  0  0  0  0  0  0  0  0999 V2000
   -2.7484   -3.5821   -0.9723 C   0  0  0  0  0  0  0  0  0  0  0  0
   -3.7336   -2.6241   -0.6165 O   0  0  0  0  0  0  0  0  0  0  0  0
   -3.3521   -1.3104   -0.5590 C   0  0  0  0  0  0  0  0  0  0  0  0
   -2.0472   -0.8425   -0.7343 C   0  0  0  0  0  0  0  0  0  0  0  0
   -1.7603    0.5303   -0.6476 C   0  0  0  0  0  0  0  0  0  0  0  0
   -0.4000    1.0472   -0.8470 C   0  0  0  0  0  0  0  0  0  0  0  0
    0.6842    0.5164   -0.2610 C   0  0  0  0  0  0  0  0  0  0  0  0
    2.0155    1.1406   -0.4915 C   0  0  0  0  0  0  0  0  0  0  0  0
    2.1338    2.2267   -1.0497 O   0  0  0  0  0  0  0  0  0  0  0  0
    3.2236    0.4352    0.0141 C   0  0  0  0  0  0  0  0  0  0  0  0
    4.3399    1.2201    0.3468 C   0  0  0  0  0  0  0  0  0  0  0  0
    5.4920    0.6032    0.8184 C   0  0  0  0  0  0  0  0  0  0  0  0
    6.6041    1.3229    1.1616 O   0  0  0  0  0  0  0  0  0  0  0  0
    5.5478   -0.7824    0.9547 C   0  0  0  0  0  0  0  0  0  0  0  0
    6.6965   -1.3581    1.4240 O   0  0  0  0  0  0  0  0  0  0  0  0
    4.4504   -1.5652    0.6070 C   0  0  0  0  0  0  0  0  0  0  0  0
    4.5311   -2.9230    0.7322 O   0  0  0  0  0  0  0  0  0  0  0  0
    3.2848   -0.9634    0.1308 C   0  0  0  0  0  0  0  0  0  0  0  0
   -2.7967    1.4457   -0.4086 C   0  0  0  0  0  0  0  0  0  0  0  0
   -4.1033    0.9955   -0.2276 C   0  0  0  0  0  0  0  0  0  0  0  0
   -5.2006    1.7812    0.0234 O   0  0  0  0  0  0  0  0  0  0  0  0
   -4.9803    3.1853    0.0963 C   0  0  0  0  0  0  0  0  0  0  0  0
   -4.3651   -0.3800   -0.3008 C   0  0  0  0  0  0  0  0  0  0  0  0
   -5.6567   -0.8156   -0.1196 O   0  0  0  0  0  0  0  0  0  0  0  0
   -1.9567   -3.6314   -0.2176 H   0  0  0  0  0  0  0  0  0  0  0  0
   -2.3357   -3.3763   -1.9655 H   0  0  0  0  0  0  0  0  0  0  0  0
   -3.2325   -4.5627   -1.0102 H   0  0  0  0  0  0  0  0  0  0  0  0
   -1.2382   -1.5316   -0.9506 H   0  0  0  0  0  0  0  0  0  0  0  0
   -0.3121    1.9257   -1.4851 H   0  0  0  0  0  0  0  0  0  0  0  0
    0.6123   -0.3287    0.4113 H   0  0  0  0  0  0  0  0  0  0  0  0
    4.2915    2.3003    0.2353 H   0  0  0  0  0  0  0  0  0  0  0  0
    6.4326    2.2635    0.9779 H   0  0  0  0  0  0  0  0  0  0  0  0
    7.3060   -0.6120    1.5839 H   0  0  0  0  0  0  0  0  0  0  0  0
    3.7184   -3.3385    0.4081 H   0  0  0  0  0  0  0  0  0  0  0  0
    2.4456   -1.5830   -0.1655 H   0  0  0  0  0  0  0  0  0  0  0  0
   -2.5550    2.5029   -0.3584 H   0  0  0  0  0  0  0  0  0  0  0  0
   -5.9438    3.6641    0.2956 H   0  0  0  0  0  0  0  0  0  0  0  0
   -4.6048    3.5757   -0.8553 H   0  0  0  0  0  0  0  0  0  0  0  0
   -4.3065    3.4362    0.9221 H   0  0  0  0  0  0  0  0  0  0  0  0
   -6.1803   -0.0076    0.0368 H   0  0  0  0  0  0  0  0  0  0  0  0
  1  2  1  0
  2  3  1  0
  3  4  2  0
  4  5  1  0
  5  6  1  0
  6  7  2  0
  7  8  1  0
  8  9  2  0
  8 10  1  0
 10 11  1  0
 11 12  2  0
 12 13  1  0
 12 14  1  0
 14 15  1  0
 14 16  2  0
 16 17  1  0
 16 18  1  0
  5 19  2  0
 19 20  1  0
 20 21  1  0
 21 22  1  0
 20 23  2  0
 23 24  1  0
 23  3  1  0
 18 10  2  0
  1 25  1  0
  1 26  1  0
  1 27  1  0
  4 28  1  0
  6 29  1  0
  7 30  1  0
 11 31  1  0
 13 32  1  0
 15 33  1  0
 17 34  1  0
 18 35  1  0
 19 36  1  0
 22 37  1  0
 22 38  1  0
 22 39  1  0
 24 40  1  0
M  END
$$$$
