
     RDKit          3D

 35 39  0  0  0  0  0  0  0  0999 V2000
   -6.6199   -0.1305   -0.6080 C   0  0  0  0  0  0  0  0  0  0  0  0
   -6.4940    0.6744    0.5274 C   0  0  0  0  0  0  0  0  0  0  0  0
   -5.2383    0.9949    1.0571 C   0  0  0  0  0  0  0  0  0  0  0  0
   -4.1281    0.4695    0.3930 C   0  0  0  0  0  0  0  0  0  0  0  0
   -2.7802    0.5697    0.6202 N   0  0  0  0  0  0  0  0  0  0  0  0
   -2.1071   -0.1496   -0.3439 C   0  0  0  0  0  0  0  0  0  0  0  0
   -0.6450   -0.2740   -0.4236 C   0  0  0  0  0  0  0  0  0  0  0  0
   -0.0852   -1.0433   -1.4610 C   0  0  0  0  0  0  0  0  0  0  0  0
    1.2984   -1.2144   -1.6111 C   0  0  0  0  0  0  0  0  0  0  0  0
    2.1046   -0.5775   -0.6709 C   0  0  0  0  0  0  0  0  0  0  0  0
    3.4633   -0.5190   -0.5023 N   0  0  0  0  0  0  0  0  0  0  0  0
    3.7237    0.2567    0.5964 C   0  0  0  0  0  0  0  0  0  0  0  0
    5.1310    0.5972    1.1614 C   0  0  0  0  0  0  0  0  0  0  0  0
    6.2370   -0.4225    1.0996 C   0  0  0  0  0  0  0  0  0  0  0  0
    6.2927    0.7981    0.2250 C   0  0  0  0  0  0  0  0  0  0  0  0
    2.6135    0.6999    1.1436 N   0  0  0  0  0  0  0  0  0  0  0  0
    1.5996    0.1914    0.3693 C   0  0  0  0  0  0  0  0  0  0  0  0
    0.2107    0.3501    0.5017 C   0  0  0  0  0  0  0  0  0  0  0  0
   -2.9755   -0.7029   -1.1746 N   0  0  0  0  0  0  0  0  0  0  0  0
   -4.2214   -0.3320   -0.7356 C   0  0  0  0  0  0  0  0  0  0  0  0
   -5.4868   -0.6432   -1.2529 C   0  0  0  0  0  0  0  0  0  0  0  0
   -7.6077   -0.3636   -0.9982 H   0  0  0  0  0  0  0  0  0  0  0  0
   -7.3901    1.0601    1.0097 H   0  0  0  0  0  0  0  0  0  0  0  0
   -5.1413    1.6195    1.9381 H   0  0  0  0  0  0  0  0  0  0  0  0
   -2.3539    1.0870    1.3724 H   0  0  0  0  0  0  0  0  0  0  0  0
   -0.7480   -1.5278   -2.1795 H   0  0  0  0  0  0  0  0  0  0  0  0
    1.7063   -1.8120   -2.4186 H   0  0  0  0  0  0  0  0  0  0  0  0
    4.1566   -0.9664   -1.0820 H   0  0  0  0  0  0  0  0  0  0  0  0
    5.0972    1.2306    2.0432 H   0  0  0  0  0  0  0  0  0  0  0  0
    6.9158   -0.4746    1.9441 H   0  0  0  0  0  0  0  0  0  0  0  0
    6.0472   -1.3821    0.6349 H   0  0  0  0  0  0  0  0  0  0  0  0
    6.1411    0.6769   -0.8404 H   0  0  0  0  0  0  0  0  0  0  0  0
    7.0093    1.5725    0.4773 H   0  0  0  0  0  0  0  0  0  0  0  0
   -0.1502    0.9552    1.3225 H   0  0  0  0  0  0  0  0  0  0  0  0
   -5.5754   -1.2683   -2.1341 H   0  0  0  0  0  0  0  0  0  0  0  0
  1  2  2  0
  2  3  1  0
  3  4  2  0
  4  5  1  0
  5  6  1  0
  6  7  1  0
  7  8  2  0
  8  9  1  0
  9 10  2  0
 10 11  1  0
 11 12  1  0
 12 13  1  0
 13 14  1  0
 14 15  1  0
 12 16  2  0
 16 17  1  0
 17 18  2  0
  6 19  2  0
 19 20  1  0
 20 21  2  0
 21  1  1  0
 20  4  1  0
 18  7  1  0
 17 10  1  0
 15 13  1  0
  1 22  1  0
  2 23  1  0
  3 24  1  0
  5 25  1  0
  8 26  1  0
  9 27  1  0
 11 28  1  0
 13 29  1  0
 14 30  1  0
 14 31  1  0
 15 32  1  0
 15 33  1  0
 18 34  1  0
 21 35  1  0
M  END
$$$$
