
     RDKit          3D

 28 30  0  0  0  0  0  0  0  0999 V2000
   -2.9639    1.8172    0.4737 C   0  0  0  0  0  0  0  0  0  0  0  0
   -2.4403    0.4357    0.1751 C   0  0  0  0  0  0  0  0  0  0  0  0
   -3.3492   -0.6257    0.0493 C   0  0  0  0  0  0  0  0  0  0  0  0
   -2.8912   -1.9068   -0.2134 C   0  0  0  0  0  0  0  0  0  0  0  0
   -1.5245   -2.1289   -0.3580 C   0  0  0  0  0  0  0  0  0  0  0  0
   -0.5865   -1.0723   -0.2446 C   0  0  0  0  0  0  0  0  0  0  0  0
    0.8163   -1.2382   -0.4000 C   0  0  0  0  0  0  0  0  0  0  0  0
    1.3917   -2.5343   -0.5634 N   0  0  0  0  0  0  0  0  0  0  0  0
    1.6836   -0.1419   -0.1751 C   0  0  0  0  0  0  0  0  0  0  0  0
    3.0947   -0.2337   -0.2432 C   0  0  0  0  0  0  0  0  0  0  0  0
    3.9029    0.8812   -0.0289 C   0  0  0  0  0  0  0  0  0  0  0  0
    3.3126    2.1043    0.2529 C   0  0  0  0  0  0  0  0  0  0  0  0
    1.9205    2.1999    0.3173 C   0  0  0  0  0  0  0  0  0  0  0  0
    1.0965    1.1006    0.1097 C   0  0  0  0  0  0  0  0  0  0  0  0
   -0.2291    1.2725    0.1983 N   0  0  0  0  0  0  0  0  0  0  0  0
   -1.0603    0.2274    0.0391 C   0  0  0  0  0  0  0  0  0  0  0  0
   -2.6574    2.5182   -0.3097 H   0  0  0  0  0  0  0  0  0  0  0  0
   -2.5886    2.1638    1.4421 H   0  0  0  0  0  0  0  0  0  0  0  0
   -4.0582    1.8316    0.5172 H   0  0  0  0  0  0  0  0  0  0  0  0
   -4.4172   -0.4529    0.1606 H   0  0  0  0  0  0  0  0  0  0  0  0
   -3.5936   -2.7308   -0.3069 H   0  0  0  0  0  0  0  0  0  0  0  0
   -1.2018   -3.1452   -0.5611 H   0  0  0  0  0  0  0  0  0  0  0  0
    0.7873   -3.1705   -1.0718 H   0  0  0  0  0  0  0  0  0  0  0  0
    1.6172   -2.9246    0.3505 H   0  0  0  0  0  0  0  0  0  0  0  0
    3.5658   -1.1857   -0.4797 H   0  0  0  0  0  0  0  0  0  0  0  0
    4.9841    0.7922   -0.0886 H   0  0  0  0  0  0  0  0  0  0  0  0
    3.9260    2.9854    0.4204 H   0  0  0  0  0  0  0  0  0  0  0  0
    1.4627    3.1616    0.5381 H   0  0  0  0  0  0  0  0  0  0  0  0
  1  2  1  0
  2  3  1  0
  3  4  2  0
  4  5  1  0
  5  6  2  0
  6  7  1  0
  7  8  1  0
  7  9  2  0
  9 10  1  0
 10 11  2  0
 11 12  1  0
 12 13  2  0
 13 14  1  0
 14 15  2  0
 15 16  1  0
 16  2  2  0
 16  6  1  0
 14  9  1  0
  1 17  1  0
  1 18  1  0
  1 19  1  0
  3 20  1  0
  4 21  1  0
  5 22  1  0
  8 23  1  0
  8 24  1  0
 10 25  1  0
 11 26  1  0
 12 27  1  0
 13 28  1  0
M  END
$$$$
