
     RDKit          3D

 33 35  0  0  0  0  0  0  0  0999 V2000
    6.0347    0.7874   -0.0686 O   0  0  0  0  0  0  0  0  0  0  0  0
    4.8582    1.0721   -0.2171 C   0  0  0  0  0  0  0  0  0  0  0  0
    4.4604    2.3237   -0.4966 O   0  0  0  0  0  0  0  0  0  0  0  0
    3.7467    0.1011   -0.1154 C   0  0  0  0  0  0  0  0  0  0  0  0
    2.4121    0.5042   -0.2858 C   0  0  0  0  0  0  0  0  0  0  0  0
    1.3629   -0.4250   -0.1903 C   0  0  0  0  0  0  0  0  0  0  0  0
   -0.0457   -0.0159   -0.3541 C   0  0  0  0  0  0  0  0  0  0  0  0
   -0.4312    0.7990   -1.3469 C   0  0  0  0  0  0  0  0  0  0  0  0
   -1.8512    1.1614   -1.4607 C   0  0  0  0  0  0  0  0  0  0  0  0
   -2.2542    1.9063   -2.3471 O   0  0  0  0  0  0  0  0  0  0  0  0
   -2.7679    0.5942   -0.4653 C   0  0  0  0  0  0  0  0  0  0  0  0
   -4.1369    0.8777   -0.4810 C   0  0  0  0  0  0  0  0  0  0  0  0
   -4.7181    1.6939   -1.4131 O   0  0  0  0  0  0  0  0  0  0  0  0
   -4.9742    0.3203    0.4814 C   0  0  0  0  0  0  0  0  0  0  0  0
   -4.4377   -0.5182    1.4551 C   0  0  0  0  0  0  0  0  0  0  0  0
   -5.2918   -1.0428    2.3795 O   0  0  0  0  0  0  0  0  0  0  0  0
   -3.0758   -0.8089    1.4814 C   0  0  0  0  0  0  0  0  0  0  0  0
   -2.2410   -0.2471    0.5135 C   0  0  0  0  0  0  0  0  0  0  0  0
   -0.9070   -0.5660    0.5828 O   0  0  0  0  0  0  0  0  0  0  0  0
    1.6727   -1.7635    0.0938 C   0  0  0  0  0  0  0  0  0  0  0  0
    2.9980   -2.1705    0.2642 C   0  0  0  0  0  0  0  0  0  0  0  0
    4.0298   -1.2426    0.1591 C   0  0  0  0  0  0  0  0  0  0  0  0
    5.2967   -1.7288    0.3414 O   0  0  0  0  0  0  0  0  0  0  0  0
    5.2890    2.8471   -0.5339 H   0  0  0  0  0  0  0  0  0  0  0  0
    2.1900    1.5516   -0.4806 H   0  0  0  0  0  0  0  0  0  0  0  0
    0.2377    1.2107   -2.0916 H   0  0  0  0  0  0  0  0  0  0  0  0
   -4.0171    2.0129   -2.0251 H   0  0  0  0  0  0  0  0  0  0  0  0
   -6.0385    0.5386    0.4723 H   0  0  0  0  0  0  0  0  0  0  0  0
   -4.7931   -1.6008    2.9989 H   0  0  0  0  0  0  0  0  0  0  0  0
   -2.6544   -1.4618    2.2392 H   0  0  0  0  0  0  0  0  0  0  0  0
    0.8824   -2.5074    0.1789 H   0  0  0  0  0  0  0  0  0  0  0  0
    3.2255   -3.2117    0.4795 H   0  0  0  0  0  0  0  0  0  0  0  0
    5.9391   -0.9913    0.2525 H   0  0  0  0  0  0  0  0  0  0  0  0
  1  2  2  0
  2  3  1  0
  2  4  1  0
  4  5  1  0
  5  6  2  0
  6  7  1  0
  7  8  2  0
  8  9  1  0
  9 10  2  0
  9 11  1  0
 11 12  2  0
 12 13  1  0
 12 14  1  0
 14 15  2  0
 15 16  1  0
 15 17  1  0
 17 18  2  0
 18 19  1  0
  6 20  1  0
 20 21  2  0
 21 22  1  0
 22 23  1  0
 22  4  2  0
 19  7  1  0
 18 11  1  0
  3 24  1  0
  5 25  1  0
  8 26  1  0
 13 27  1  0
 14 28  1  0
 16 29  1  0
 17 30  1  0
 20 31  1  0
 21 32  1  0
 23 33  1  0
M  END
$$$$
