
     RDKit          3D

 25 27  0  0  0  0  0  0  0  0999 V2000
    0.3429    2.4851    0.3914 N   0  0  0  0  0  0  0  0  0  0  0  0
    0.1514    1.1130    0.0568 C   0  0  0  0  0  0  0  0  0  0  0  0
   -1.1671    0.5917   -0.0572 C   0  0  0  0  0  0  0  0  0  0  0  0
   -2.3572    1.3505    0.1006 C   0  0  0  0  0  0  0  0  0  0  0  0
   -3.6173    0.7734   -0.0589 C   0  0  0  0  0  0  0  0  0  0  0  0
   -3.7146   -0.5716   -0.3765 C   0  0  0  0  0  0  0  0  0  0  0  0
   -2.5513   -1.3284   -0.5191 C   0  0  0  0  0  0  0  0  0  0  0  0
   -1.2876   -0.7752   -0.3571 C   0  0  0  0  0  0  0  0  0  0  0  0
   -0.2334   -1.5869   -0.4889 N   0  0  0  0  0  0  0  0  0  0  0  0
    1.0177   -1.1289   -0.2789 C   0  0  0  0  0  0  0  0  0  0  0  0
    2.1153   -2.0015   -0.3514 C   0  0  0  0  0  0  0  0  0  0  0  0
    1.8910   -3.6803   -0.7379 Cl  0  0  0  0  0  0  0  0  0  0  0  0
    3.4273   -1.5802   -0.1145 C   0  0  0  0  0  0  0  0  0  0  0  0
    3.6713   -0.2573    0.2107 C   0  0  0  0  0  0  0  0  0  0  0  0
    2.6026    0.6335    0.2816 C   0  0  0  0  0  0  0  0  0  0  0  0
    1.2659    0.2258    0.0267 C   0  0  0  0  0  0  0  0  0  0  0  0
   -0.4067    3.0820    0.0579 H   0  0  0  0  0  0  0  0  0  0  0  0
    1.2356    2.8502    0.0777 H   0  0  0  0  0  0  0  0  0  0  0  0
   -2.3158    2.4022    0.3680 H   0  0  0  0  0  0  0  0  0  0  0  0
   -4.5146    1.3732    0.0692 H   0  0  0  0  0  0  0  0  0  0  0  0
   -4.6868   -1.0395   -0.5046 H   0  0  0  0  0  0  0  0  0  0  0  0
   -2.6314   -2.3875   -0.7560 H   0  0  0  0  0  0  0  0  0  0  0  0
    4.2521   -2.2854   -0.1743 H   0  0  0  0  0  0  0  0  0  0  0  0
    4.6839    0.0821    0.4128 H   0  0  0  0  0  0  0  0  0  0  0  0
    2.8266    1.6600    0.5601 H   0  0  0  0  0  0  0  0  0  0  0  0
  1  2  1  0
  2  3  2  0
  3  4  1  0
  4  5  2  0
  5  6  1  0
  6  7  2  0
  7  8  1  0
  8  9  2  0
  9 10  1  0
 10 11  2  0
 11 12  1  0
 11 13  1  0
 13 14  2  0
 14 15  1  0
 15 16  2  0
 16  2  1  0
  8  3  1  0
 16 10  1  0
  1 17  1  0
  1 18  1  0
  4 19  1  0
  5 20  1  0
  6 21  1  0
  7 22  1  0
 13 23  1  0
 14 24  1  0
 15 25  1  0
M  END
$$$$
