
     RDKit          3D

 41 46  0  0  0  0  0  0  0  0999 V2000
    8.0045    0.3065   -0.1712 C   0  0  0  0  0  0  0  0  0  0  0  0
    7.7303    0.1067    1.1844 C   0  0  0  0  0  0  0  0  0  0  0  0
    6.4153    0.0024    1.6535 C   0  0  0  0  0  0  0  0  0  0  0  0
    5.4017    0.1084    0.6990 C   0  0  0  0  0  0  0  0  0  0  0  0
    4.0351    0.0563    0.7897 N   0  0  0  0  0  0  0  0  0  0  0  0
    3.4946    0.2188   -0.4677 C   0  0  0  0  0  0  0  0  0  0  0  0
    2.0551    0.2193   -0.7640 C   0  0  0  0  0  0  0  0  0  0  0  0
    1.6368    0.3959   -2.0962 C   0  0  0  0  0  0  0  0  0  0  0  0
    0.2844    0.4094   -2.4663 C   0  0  0  0  0  0  0  0  0  0  0  0
   -0.6380    0.2372   -1.4372 C   0  0  0  0  0  0  0  0  0  0  0  0
   -2.0077    0.1950   -1.4182 N   0  0  0  0  0  0  0  0  0  0  0  0
   -2.4319   -0.0008   -0.1212 C   0  0  0  0  0  0  0  0  0  0  0  0
   -3.8392   -0.0996    0.2905 C   0  0  0  0  0  0  0  0  0  0  0  0
   -4.1358   -0.3009    1.6518 C   0  0  0  0  0  0  0  0  0  0  0  0
   -5.4497   -0.4065    2.1303 C   0  0  0  0  0  0  0  0  0  0  0  0
   -6.4631   -0.3012    1.1807 C   0  0  0  0  0  0  0  0  0  0  0  0
   -7.8304   -0.3537    1.2738 N   0  0  0  0  0  0  0  0  0  0  0  0
   -8.3442   -0.1907    0.0179 C   0  0  0  0  0  0  0  0  0  0  0  0
   -7.3965   -0.0365   -0.8784 N   0  0  0  0  0  0  0  0  0  0  0  0
   -6.2201   -0.1026   -0.1725 C   0  0  0  0  0  0  0  0  0  0  0  0
   -4.8969    0.0004   -0.6309 C   0  0  0  0  0  0  0  0  0  0  0  0
   -1.3839   -0.0845    0.6826 N   0  0  0  0  0  0  0  0  0  0  0  0
   -0.2751    0.0600   -0.1122 C   0  0  0  0  0  0  0  0  0  0  0  0
    1.0842    0.0493    0.2392 C   0  0  0  0  0  0  0  0  0  0  0  0
    4.4651    0.3721   -1.3536 N   0  0  0  0  0  0  0  0  0  0  0  0
    5.6429    0.3068   -0.6527 C   0  0  0  0  0  0  0  0  0  0  0  0
    6.9658    0.4089   -1.1056 C   0  0  0  0  0  0  0  0  0  0  0  0
    9.0355    0.3839   -0.5082 H   0  0  0  0  0  0  0  0  0  0  0  0
    8.5555    0.0305    1.8898 H   0  0  0  0  0  0  0  0  0  0  0  0
    6.2032   -0.1527    2.7055 H   0  0  0  0  0  0  0  0  0  0  0  0
    3.5135   -0.0793    1.6410 H   0  0  0  0  0  0  0  0  0  0  0  0
    2.3885    0.5280   -2.8759 H   0  0  0  0  0  0  0  0  0  0  0  0
   -0.0142    0.5471   -3.4995 H   0  0  0  0  0  0  0  0  0  0  0  0
   -2.6043    0.2921   -2.2248 H   0  0  0  0  0  0  0  0  0  0  0  0
   -3.3165   -0.3788    2.3680 H   0  0  0  0  0  0  0  0  0  0  0  0
   -5.6531   -0.5616    3.1839 H   0  0  0  0  0  0  0  0  0  0  0  0
   -8.3637   -0.4890    2.1203 H   0  0  0  0  0  0  0  0  0  0  0  0
   -9.4081   -0.1935   -0.1786 H   0  0  0  0  0  0  0  0  0  0  0  0
   -4.7428    0.1549   -1.6905 H   0  0  0  0  0  0  0  0  0  0  0  0
    1.3337   -0.0912    1.2823 H   0  0  0  0  0  0  0  0  0  0  0  0
    7.1696    0.5640   -2.1589 H   0  0  0  0  0  0  0  0  0  0  0  0
  1  2  2  0
  2  3  1  0
  3  4  2  0
  4  5  1  0
  5  6  1  0
  6  7  1  0
  7  8  2  0
  8  9  1  0
  9 10  2  0
 10 11  1  0
 11 12  1  0
 12 13  1  0
 13 14  2  0
 14 15  1  0
 15 16  2  0
 16 17  1  0
 17 18  1  0
 18 19  2  0
 19 20  1  0
 20 21  2  0
 12 22  2  0
 22 23  1  0
 23 24  2  0
  6 25  2  0
 25 26  1  0
 26 27  2  0
 27  1  1  0
 26  4  1  0
 24  7  1  0
 23 10  1  0
 21 13  1  0
 20 16  1  0
  1 28  1  0
  2 29  1  0
  3 30  1  0
  5 31  1  0
  8 32  1  0
  9 33  1  0
 11 34  1  0
 14 35  1  0
 15 36  1  0
 17 37  1  0
 18 38  1  0
 21 39  1  0
 24 40  1  0
 27 41  1  0
M  END
$$$$
