
     RDKit          3D

 25 27  0  0  0  0  0  0  0  0999 V2000
   -1.5562    2.8926    0.5166 N   0  0  0  0  0  0  0  0  0  0  0  0
   -0.7509    1.7559    0.3319 C   0  0  0  0  0  0  0  0  0  0  0  0
    0.5640    1.9569    0.5022 N   0  0  0  0  0  0  0  0  0  0  0  0
    1.4063    0.9321    0.3467 C   0  0  0  0  0  0  0  0  0  0  0  0
    2.7584    1.1880    0.5331 C   0  0  0  0  0  0  0  0  0  0  0  0
    3.7268    0.1941    0.3966 C   0  0  0  0  0  0  0  0  0  0  0  0
    3.3374   -1.0925    0.0646 C   0  0  0  0  0  0  0  0  0  0  0  0
    1.9836   -1.3721   -0.1274 C   0  0  0  0  0  0  0  0  0  0  0  0
    0.9846   -0.3704    0.0080 C   0  0  0  0  0  0  0  0  0  0  0  0
   -0.4208   -0.5847   -0.1739 C   0  0  0  0  0  0  0  0  0  0  0  0
   -0.9884   -1.8402   -0.5155 C   0  0  0  0  0  0  0  0  0  0  0  0
   -2.3633   -2.0181   -0.6862 C   0  0  0  0  0  0  0  0  0  0  0  0
   -3.2213   -0.9446   -0.5210 C   0  0  0  0  0  0  0  0  0  0  0  0
   -2.6999    0.3026   -0.1856 C   0  0  0  0  0  0  0  0  0  0  0  0
   -1.3073    0.5057   -0.0075 C   0  0  0  0  0  0  0  0  0  0  0  0
   -2.2190    2.7145    1.2639 H   0  0  0  0  0  0  0  0  0  0  0  0
   -2.0676    3.0822   -0.3389 H   0  0  0  0  0  0  0  0  0  0  0  0
    3.0662    2.1987    0.7940 H   0  0  0  0  0  0  0  0  0  0  0  0
    4.7757    0.4318    0.5503 H   0  0  0  0  0  0  0  0  0  0  0  0
    4.0796   -1.8787   -0.0457 H   0  0  0  0  0  0  0  0  0  0  0  0
    1.7200   -2.3933   -0.3866 H   0  0  0  0  0  0  0  0  0  0  0  0
   -0.3602   -2.7156   -0.6571 H   0  0  0  0  0  0  0  0  0  0  0  0
   -2.7562   -2.9973   -0.9480 H   0  0  0  0  0  0  0  0  0  0  0  0
   -4.2924   -1.0738   -0.6519 H   0  0  0  0  0  0  0  0  0  0  0  0
   -3.3993    1.1261   -0.0628 H   0  0  0  0  0  0  0  0  0  0  0  0
  1  2  1  0
  2  3  2  0
  3  4  1  0
  4  5  2  0
  5  6  1  0
  6  7  2  0
  7  8  1  0
  8  9  2  0
  9 10  1  0
 10 11  2  0
 11 12  1  0
 12 13  2  0
 13 14  1  0
 14 15  2  0
 15  2  1  0
  9  4  1  0
 15 10  1  0
  1 16  1  0
  1 17  1  0
  5 18  1  0
  6 19  1  0
  7 20  1  0
  8 21  1  0
 11 22  1  0
 12 23  1  0
 13 24  1  0
 14 25  1  0
M  END
$$$$
