
     RDKit          3D

 25 27  0  0  0  0  0  0  0  0999 V2000
    0.0606   -2.4982   -0.4166 N   0  0  0  0  0  0  0  0  0  0  0  0
    0.0316   -1.0768   -0.2981 C   0  0  0  0  0  0  0  0  0  0  0  0
   -1.2257   -0.4327   -0.1882 C   0  0  0  0  0  0  0  0  0  0  0  0
   -2.4622   -1.1063   -0.3319 C   0  0  0  0  0  0  0  0  0  0  0  0
   -3.6732   -0.4241   -0.2302 C   0  0  0  0  0  0  0  0  0  0  0  0
   -3.6663    0.9415    0.0129 C   0  0  0  0  0  0  0  0  0  0  0  0
   -2.4486    1.6118    0.1518 C   0  0  0  0  0  0  0  0  0  0  0  0
   -1.2297    0.9517    0.0570 C   0  0  0  0  0  0  0  0  0  0  0  0
   -0.1059    1.6653    0.2122 N   0  0  0  0  0  0  0  0  0  0  0  0
    1.0815    1.0462    0.1590 C   0  0  0  0  0  0  0  0  0  0  0  0
    2.2192    1.8164    0.3618 C   0  0  0  0  0  0  0  0  0  0  0  0
    3.5004    1.2632    0.3526 C   0  0  0  0  0  0  0  0  0  0  0  0
    3.6556   -0.0972    0.1382 C   0  0  0  0  0  0  0  0  0  0  0  0
    2.5287   -0.8917   -0.0725 C   0  0  0  0  0  0  0  0  0  0  0  0
    1.2227   -0.3365   -0.0748 C   0  0  0  0  0  0  0  0  0  0  0  0
    0.9180   -2.8399   -0.8369 H   0  0  0  0  0  0  0  0  0  0  0  0
   -0.0688   -2.9204    0.5017 H   0  0  0  0  0  0  0  0  0  0  0  0
   -2.4777   -2.1744   -0.5390 H   0  0  0  0  0  0  0  0  0  0  0  0
   -4.6125   -0.9577   -0.3469 H   0  0  0  0  0  0  0  0  0  0  0  0
   -4.6006    1.4904    0.0927 H   0  0  0  0  0  0  0  0  0  0  0  0
   -2.4495    2.6828    0.3418 H   0  0  0  0  0  0  0  0  0  0  0  0
    2.1026    2.8836    0.5389 H   0  0  0  0  0  0  0  0  0  0  0  0
    4.3672    1.8977    0.5172 H   0  0  0  0  0  0  0  0  0  0  0  0
    4.6477   -0.5411    0.1330 H   0  0  0  0  0  0  0  0  0  0  0  0
    2.6850   -1.9535   -0.2357 H   0  0  0  0  0  0  0  0  0  0  0  0
  1  2  1  0
  2  3  2  0
  3  4  1  0
  4  5  2  0
  5  6  1  0
  6  7  2  0
  7  8  1  0
  8  9  2  0
  9 10  1  0
 10 11  2  0
 11 12  1  0
 12 13  2  0
 13 14  1  0
 14 15  2  0
 15  2  1  0
  8  3  1  0
 15 10  1  0
  1 16  1  0
  1 17  1  0
  4 18  1  0
  5 19  1  0
  6 20  1  0
  7 21  1  0
 11 22  1  0
 12 23  1  0
 13 24  1  0
 14 25  1  0
M  END
$$$$
