
     RDKit          3D

 30 32  0  0  0  0  0  0  0  0999 V2000
    2.0427   -2.5908   -1.6835 O   0  0  0  0  0  0  0  0  0  0  0  0
    1.5354   -1.6484   -1.0907 C   0  0  0  0  0  0  0  0  0  0  0  0
    0.0660   -1.5799   -0.9945 C   0  0  0  0  0  0  0  0  0  0  0  0
   -0.5124   -0.5662   -0.3386 C   0  0  0  0  0  0  0  0  0  0  0  0
   -1.9792   -0.4519   -0.2205 C   0  0  0  0  0  0  0  0  0  0  0  0
   -2.7816   -1.5650    0.0787 C   0  0  0  0  0  0  0  0  0  0  0  0
   -4.1689   -1.4354    0.1981 C   0  0  0  0  0  0  0  0  0  0  0  0
   -4.7733   -0.1913    0.0259 C   0  0  0  0  0  0  0  0  0  0  0  0
   -3.9815    0.9148   -0.2611 C   0  0  0  0  0  0  0  0  0  0  0  0
   -4.5280    2.1525   -0.4340 O   0  0  0  0  0  0  0  0  0  0  0  0
   -2.5996    0.7952   -0.3814 C   0  0  0  0  0  0  0  0  0  0  0  0
    0.1864    0.4656    0.2602 O   0  0  0  0  0  0  0  0  0  0  0  0
    1.5585    0.4526    0.1975 C   0  0  0  0  0  0  0  0  0  0  0  0
    2.2039    1.5213    0.8265 C   0  0  0  0  0  0  0  0  0  0  0  0
    3.5912    1.5816    0.8083 C   0  0  0  0  0  0  0  0  0  0  0  0
    4.2672    2.6027    1.4071 O   0  0  0  0  0  0  0  0  0  0  0  0
    4.3400    0.5960    0.1747 C   0  0  0  0  0  0  0  0  0  0  0  0
    3.6906   -0.4704   -0.4530 C   0  0  0  0  0  0  0  0  0  0  0  0
    4.4461   -1.4265   -1.0688 O   0  0  0  0  0  0  0  0  0  0  0  0
    2.2915   -0.5497   -0.4462 C   0  0  0  0  0  0  0  0  0  0  0  0
   -0.4821   -2.3751   -1.4835 H   0  0  0  0  0  0  0  0  0  0  0  0
   -2.3351   -2.5450    0.2348 H   0  0  0  0  0  0  0  0  0  0  0  0
   -4.7755   -2.3074    0.4300 H   0  0  0  0  0  0  0  0  0  0  0  0
   -5.8509   -0.1049    0.1220 H   0  0  0  0  0  0  0  0  0  0  0  0
   -5.4917    2.0837   -0.3336 H   0  0  0  0  0  0  0  0  0  0  0  0
   -2.0127    1.6816   -0.6097 H   0  0  0  0  0  0  0  0  0  0  0  0
    1.6120    2.2865    1.3193 H   0  0  0  0  0  0  0  0  0  0  0  0
    3.6281    3.2170    1.8063 H   0  0  0  0  0  0  0  0  0  0  0  0
    5.4232    0.6734    0.1793 H   0  0  0  0  0  0  0  0  0  0  0  0
    5.3897   -1.2167   -0.9839 H   0  0  0  0  0  0  0  0  0  0  0  0
  1  2  2  0
  2  3  1  0
  3  4  2  0
  4  5  1  0
  5  6  2  0
  6  7  1  0
  7  8  2  0
  8  9  1  0
  9 10  1  0
  9 11  2  0
  4 12  1  0
 12 13  1  0
 13 14  2  0
 14 15  1  0
 15 16  1  0
 15 17  2  0
 17 18  1  0
 18 19  1  0
 18 20  2  0
 20  2  1  0
 11  5  1  0
 20 13  1  0
  3 21  1  0
  6 22  1  0
  7 23  1  0
  8 24  1  0
 10 25  1  0
 11 26  1  0
 14 27  1  0
 16 28  1  0
 17 29  1  0
 19 30  1  0
M  END
$$$$
