
     RDKit          3D

 20 19  0  0  0  0  0  0  0  0999 V2000
    3.5409    0.6310    1.3597 N   0  0  0  0  0  0  0  0  0  0  0  0
    2.9802    0.1540    0.0950 C   0  0  0  0  0  0  0  0  0  0  0  0
    1.6296    0.7988   -0.2453 C   0  0  0  0  0  0  0  0  0  0  0  0
    0.3345    0.2882    0.9411 S   0  0  0  0  0  0  0  0  0  0  0  0
   -1.3139    1.3067    0.2492 S   0  0  0  0  0  0  0  0  0  0  0  0
   -1.9702    0.2115   -1.0624 C   0  0  0  0  0  0  0  0  0  0  0  0
   -2.4966   -1.1387   -0.5562 C   0  0  0  0  0  0  0  0  0  0  0  0
   -3.5405   -1.0300    0.4653 N   0  0  0  0  0  0  0  0  0  0  0  0
    2.8575    0.4795    2.1041 H   0  0  0  0  0  0  0  0  0  0  0  0
    4.3565    0.0707    1.6038 H   0  0  0  0  0  0  0  0  0  0  0  0
    2.8840   -0.9377    0.1250 H   0  0  0  0  0  0  0  0  0  0  0  0
    3.6933    0.3905   -0.7024 H   0  0  0  0  0  0  0  0  0  0  0  0
    1.7212    1.8903   -0.2363 H   0  0  0  0  0  0  0  0  0  0  0  0
    1.3291    0.4826   -1.2495 H   0  0  0  0  0  0  0  0  0  0  0  0
   -1.1940    0.0557   -1.8191 H   0  0  0  0  0  0  0  0  0  0  0  0
   -2.7849    0.7561   -1.5527 H   0  0  0  0  0  0  0  0  0  0  0  0
   -2.9098   -1.6923   -1.4069 H   0  0  0  0  0  0  0  0  0  0  0  0
   -1.6777   -1.7500   -0.1624 H   0  0  0  0  0  0  0  0  0  0  0  0
   -3.1478   -0.5379    1.2717 H   0  0  0  0  0  0  0  0  0  0  0  0
   -4.2916   -0.4290    0.1274 H   0  0  0  0  0  0  0  0  0  0  0  0
  1  2  1  0
  2  3  1  0
  3  4  1  0
  4  5  1  0
  5  6  1  0
  6  7  1  0
  7  8  1  0
  1  9  1  0
  1 10  1  0
  2 11  1  0
  2 12  1  0
  3 13  1  0
  3 14  1  0
  6 15  1  0
  6 16  1  0
  7 17  1  0
  7 18  1  0
  8 19  1  0
  8 20  1  0
M  END
$$$$
