
     RDKit          3D

 39 42  0  0  0  0  0  0  0  0999 V2000
   -4.1163   -2.4020    1.7203 O   0  0  0  0  0  0  0  0  0  0  0  0
   -3.5237   -1.4980    1.1416 C   0  0  0  0  0  0  0  0  0  0  0  0
   -2.0582   -1.4832    1.0340 C   0  0  0  0  0  0  0  0  0  0  0  0
   -1.4639   -0.4715    0.3847 C   0  0  0  0  0  0  0  0  0  0  0  0
    0.0032   -0.3946    0.2510 C   0  0  0  0  0  0  0  0  0  0  0  0
    0.7683   -1.5144   -0.1003 C   0  0  0  0  0  0  0  0  0  0  0  0
    2.1593   -1.4183   -0.2312 C   0  0  0  0  0  0  0  0  0  0  0  0
    2.8261   -0.2017   -0.0218 C   0  0  0  0  0  0  0  0  0  0  0  0
    4.2882   -0.1031   -0.1602 C   0  0  0  0  0  0  0  0  0  0  0  0
    4.8728    0.8540   -1.0066 C   0  0  0  0  0  0  0  0  0  0  0  0
    6.2609    0.9477   -1.1389 C   0  0  0  0  0  0  0  0  0  0  0  0
    7.0891    0.0854   -0.4251 C   0  0  0  0  0  0  0  0  0  0  0  0
    6.5307   -0.8701    0.4198 C   0  0  0  0  0  0  0  0  0  0  0  0
    5.1423   -0.9633    0.5501 C   0  0  0  0  0  0  0  0  0  0  0  0
    2.0534    0.9181    0.3201 C   0  0  0  0  0  0  0  0  0  0  0  0
    0.6627    0.8246    0.4520 C   0  0  0  0  0  0  0  0  0  0  0  0
   -2.1424    0.5923   -0.1904 O   0  0  0  0  0  0  0  0  0  0  0  0
   -3.5135    0.6116   -0.1165 C   0  0  0  0  0  0  0  0  0  0  0  0
   -4.1633    1.6905   -0.7191 C   0  0  0  0  0  0  0  0  0  0  0  0
   -5.5536    1.7588   -0.6715 C   0  0  0  0  0  0  0  0  0  0  0  0
   -6.2319    2.7928   -1.2463 O   0  0  0  0  0  0  0  0  0  0  0  0
   -6.2995    0.7710   -0.0337 C   0  0  0  0  0  0  0  0  0  0  0  0
   -5.6460   -0.3025    0.5652 C   0  0  0  0  0  0  0  0  0  0  0  0
   -6.4287   -1.2437    1.1772 O   0  0  0  0  0  0  0  0  0  0  0  0
   -4.2508   -0.3832    0.5237 C   0  0  0  0  0  0  0  0  0  0  0  0
   -1.5254   -2.3005    1.5025 H   0  0  0  0  0  0  0  0  0  0  0  0
    0.2947   -2.4746   -0.2930 H   0  0  0  0  0  0  0  0  0  0  0  0
    2.7219   -2.3055   -0.5169 H   0  0  0  0  0  0  0  0  0  0  0  0
    4.2443    1.5302   -1.5826 H   0  0  0  0  0  0  0  0  0  0  0  0
    6.6933    1.6926   -1.8018 H   0  0  0  0  0  0  0  0  0  0  0  0
    8.1687    0.1581   -0.5272 H   0  0  0  0  0  0  0  0  0  0  0  0
    7.1742   -1.5427    0.9809 H   0  0  0  0  0  0  0  0  0  0  0  0
    4.7281   -1.7099    1.2248 H   0  0  0  0  0  0  0  0  0  0  0  0
    2.5341    1.8780    0.5000 H   0  0  0  0  0  0  0  0  0  0  0  0
    0.1020    1.7165    0.7244 H   0  0  0  0  0  0  0  0  0  0  0  0
   -3.5786    2.4584   -1.2156 H   0  0  0  0  0  0  0  0  0  0  0  0
   -5.5985    3.4021   -1.6599 H   0  0  0  0  0  0  0  0  0  0  0  0
   -7.3835    0.8366   -0.0035 H   0  0  0  0  0  0  0  0  0  0  0  0
   -5.8406   -1.9364    1.5542 H   0  0  0  0  0  0  0  0  0  0  0  0
  1  2  2  0
  2  3  1  0
  3  4  2  0
  4  5  1  0
  5  6  1  0
  6  7  2  0
  7  8  1  0
  8  9  1  0
  9 10  2  0
 10 11  1  0
 11 12  2  0
 12 13  1  0
 13 14  2  0
  8 15  2  0
 15 16  1  0
  4 17  1  0
 17 18  1  0
 18 19  2  0
 19 20  1  0
 20 21  1  0
 20 22  2  0
 22 23  1  0
 23 24  1  0
 23 25  2  0
 25  2  1  0
 16  5  2  0
 25 18  1  0
 14  9  1  0
  3 26  1  0
  6 27  1  0
  7 28  1  0
 10 29  1  0
 11 30  1  0
 12 31  1  0
 13 32  1  0
 14 33  1  0
 15 34  1  0
 16 35  1  0
 19 36  1  0
 21 37  1  0
 22 38  1  0
 24 39  1  0
M  END
$$$$
