
     RDKit          3D

 25 27  0  0  0  0  0  0  0  0999 V2000
   -5.7349   -0.4675    0.6245 F   0  0  0  0  0  0  0  0  0  0  0  0
   -4.4101   -0.3675    0.4566 C   0  0  0  0  0  0  0  0  0  0  0  0
   -3.7118   -1.4123   -0.1308 C   0  0  0  0  0  0  0  0  0  0  0  0
   -2.3298   -1.3017   -0.3031 C   0  0  0  0  0  0  0  0  0  0  0  0
   -1.6360   -0.1497    0.1089 C   0  0  0  0  0  0  0  0  0  0  0  0
   -0.1826   -0.0852   -0.0958 C   0  0  0  0  0  0  0  0  0  0  0  0
    0.5593   -1.0321   -0.6458 N   0  0  0  0  0  0  0  0  0  0  0  0
    1.8495   -0.5658   -0.6416 C   0  0  0  0  0  0  0  0  0  0  0  0
    3.0261   -1.1703   -1.1059 C   0  0  0  0  0  0  0  0  0  0  0  0
    4.2334   -0.4707   -0.9822 C   0  0  0  0  0  0  0  0  0  0  0  0
    4.2668    0.8030   -0.4085 C   0  0  0  0  0  0  0  0  0  0  0  0
    3.1013    1.4212    0.0602 C   0  0  0  0  0  0  0  0  0  0  0  0
    1.9137    0.6997   -0.0766 C   0  0  0  0  0  0  0  0  0  0  0  0
    0.6151    0.9806    0.2603 N   0  0  0  0  0  0  0  0  0  0  0  0
   -2.3680    0.8931    0.7009 C   0  0  0  0  0  0  0  0  0  0  0  0
   -3.7523    0.7827    0.8736 C   0  0  0  0  0  0  0  0  0  0  0  0
   -4.2396   -2.3045   -0.4515 H   0  0  0  0  0  0  0  0  0  0  0  0
   -1.7857   -2.1252   -0.7651 H   0  0  0  0  0  0  0  0  0  0  0  0
    2.9915   -2.1588   -1.5497 H   0  0  0  0  0  0  0  0  0  0  0  0
    5.1540   -0.9274   -1.3381 H   0  0  0  0  0  0  0  0  0  0  0  0
    5.2181    1.3250   -0.3244 H   0  0  0  0  0  0  0  0  0  0  0  0
    3.1286    2.4096    0.5052 H   0  0  0  0  0  0  0  0  0  0  0  0
    0.3009    1.8316    0.6978 H   0  0  0  0  0  0  0  0  0  0  0  0
   -1.8870    1.8056    1.0383 H   0  0  0  0  0  0  0  0  0  0  0  0
   -4.3208    1.5867    1.3307 H   0  0  0  0  0  0  0  0  0  0  0  0
  1  2  1  0
  2  3  1  0
  3  4  2  0
  4  5  1  0
  5  6  1  0
  6  7  2  0
  7  8  1  0
  8  9  2  0
  9 10  1  0
 10 11  2  0
 11 12  1  0
 12 13  2  0
 13 14  1  0
  5 15  2  0
 15 16  1  0
 16  2  2  0
 14  6  1  0
 13  8  1  0
  3 17  1  0
  4 18  1  0
  9 19  1  0
 10 20  1  0
 11 21  1  0
 12 22  1  0
 14 23  1  0
 15 24  1  0
 16 25  1  0
M  END
$$$$
