
     RDKit          3D

 25 27  0  0  0  0  0  0  0  0999 V2000
   -0.3568   -2.4964   -0.0257 N   0  0  0  0  0  0  0  0  0  0  0  0
   -0.1541   -1.0910    0.0885 C   0  0  0  0  0  0  0  0  0  0  0  0
   -1.2902   -0.2480    0.1719 C   0  0  0  0  0  0  0  0  0  0  0  0
   -2.6146   -0.7335    0.2882 C   0  0  0  0  0  0  0  0  0  0  0  0
   -3.6984    0.1376    0.3822 C   0  0  0  0  0  0  0  0  0  0  0  0
   -3.4746    1.5063    0.3651 C   0  0  0  0  0  0  0  0  0  0  0  0
   -2.1693    1.9910    0.2546 C   0  0  0  0  0  0  0  0  0  0  0  0
   -1.0743    1.1414    0.1571 C   0  0  0  0  0  0  0  0  0  0  0  0
    0.1457    1.6853    0.0449 N   0  0  0  0  0  0  0  0  0  0  0  0
    1.2137    0.8892   -0.0833 C   0  0  0  0  0  0  0  0  0  0  0  0
    2.4536    1.4972   -0.2325 C   0  0  0  0  0  0  0  0  0  0  0  0
    3.6255    0.7573   -0.3997 C   0  0  0  0  0  0  0  0  0  0  0  0
    3.5548   -0.6261   -0.4210 C   0  0  0  0  0  0  0  0  0  0  0  0
    4.9848   -1.5565   -0.6349 Cl  0  0  0  0  0  0  0  0  0  0  0  0
    2.3257   -1.2646   -0.2693 C   0  0  0  0  0  0  0  0  0  0  0  0
    1.1327   -0.5189   -0.0892 C   0  0  0  0  0  0  0  0  0  0  0  0
    0.4446   -3.0467    0.2624 H   0  0  0  0  0  0  0  0  0  0  0  0
   -0.6225   -2.7352   -0.9800 H   0  0  0  0  0  0  0  0  0  0  0  0
   -2.7998   -1.8053    0.3194 H   0  0  0  0  0  0  0  0  0  0  0  0
   -4.7079   -0.2540    0.4743 H   0  0  0  0  0  0  0  0  0  0  0  0
   -4.3074    2.2004    0.4400 H   0  0  0  0  0  0  0  0  0  0  0  0
   -2.0004    3.0656    0.2427 H   0  0  0  0  0  0  0  0  0  0  0  0
    2.5078    2.5843   -0.2240 H   0  0  0  0  0  0  0  0  0  0  0  0
    4.5764    1.2699   -0.5156 H   0  0  0  0  0  0  0  0  0  0  0  0
    2.3049   -2.3494   -0.2927 H   0  0  0  0  0  0  0  0  0  0  0  0
  1  2  1  0
  2  3  2  0
  3  4  1  0
  4  5  2  0
  5  6  1  0
  6  7  2  0
  7  8  1  0
  8  9  2  0
  9 10  1  0
 10 11  2  0
 11 12  1  0
 12 13  2  0
 13 14  1  0
 13 15  1  0
 15 16  2  0
 16  2  1  0
  8  3  1  0
 16 10  1  0
  1 17  1  0
  1 18  1  0
  4 19  1  0
  5 20  1  0
  6 21  1  0
  7 22  1  0
 11 23  1  0
 12 24  1  0
 15 25  1  0
M  END
$$$$
