
     RDKit          3D

 34 32  0  0  0  0  0  0  0  0999 V2000
    0.6828    0.0000    0.0000 Cl  0  0  0  0  0  0  0  0  0  0  0  0
   -5.7516    0.9154   -0.7295 N   0  0  0  0  0  0  0  0  0  0  0  0
   -4.6070    0.5333   -1.5407 C   0  0  0  0  0  0  0  0  0  0  0  0
   -3.3387    1.0944   -0.9041 C   0  0  0  0  0  0  0  0  0  0  0  0
   -3.2201    0.3783    0.7654 S   0  0  0  0  0  0  0  0  0  0  0  0
   -2.8984   -1.7236    0.4978 S   0  0  0  0  0  0  0  0  0  0  0  0
   -1.0802   -2.0261    0.4181 C   0  0  0  0  0  0  0  0  0  0  0  0
   -0.5649   -1.7059    1.7400 C   0  0  0  0  0  0  0  0  0  0  0  0
    0.3202   -0.8284    2.1155 C   0  0  0  0  0  0  0  0  0  0  0  0
    1.1040    0.1358    1.3590 C   0  0  0  0  0  0  0  0  0  0  0  0
    0.9036    0.2017   -0.4084 S   0  0  0  0  0  0  0  0  0  0  0  0
    2.1581    1.7169   -1.2007 S   0  0  0  0  0  0  0  0  0  0  0  0
    3.7493    0.9952   -1.6215 C   0  0  0  0  0  0  0  0  0  0  0  0
    4.5394    0.5142   -0.4484 C   0  0  0  0  0  0  0  0  0  0  0  0
    5.7945   -0.0252   -1.0001 N   0  0  0  0  0  0  0  0  0  0  0  0
   -0.6828    0.0000    0.0000 H   0  0  0  0  0  0  0  0  0  0  0  0
   -6.3045    0.1127   -0.3940 H   0  0  0  0  0  0  0  0  0  0  0  0
   -5.4873    1.6120   -0.0113 H   0  0  0  0  0  0  0  0  0  0  0  0
   -4.5367   -0.5750   -1.4486 H   0  0  0  0  0  0  0  0  0  0  0  0
   -4.7054    0.8507   -2.5950 H   0  0  0  0  0  0  0  0  0  0  0  0
   -2.4989    0.6969   -1.5372 H   0  0  0  0  0  0  0  0  0  0  0  0
   -3.3040    2.1877   -0.8993 H   0  0  0  0  0  0  0  0  0  0  0  0
   -0.7450   -1.4909   -0.4445 H   0  0  0  0  0  0  0  0  0  0  0  0
   -0.9557   -3.1344    0.1932 H   0  0  0  0  0  0  0  0  0  0  0  0
   -1.0075   -2.3211    2.5728 H   0  0  0  0  0  0  0  0  0  0  0  0
    0.5189   -0.8081    3.2264 H   0  0  0  0  0  0  0  0  0  0  0  0
    2.1872   -0.1448    1.5426 H   0  0  0  0  0  0  0  0  0  0  0  0
    1.0565    1.1671    1.8132 H   0  0  0  0  0  0  0  0  0  0  0  0
    3.6338    0.1102   -2.3043 H   0  0  0  0  0  0  0  0  0  0  0  0
    4.3412    1.7218   -2.2284 H   0  0  0  0  0  0  0  0  0  0  0  0
    4.0051   -0.3325    0.0385 H   0  0  0  0  0  0  0  0  0  0  0  0
    4.7456    1.3256    0.2597 H   0  0  0  0  0  0  0  0  0  0  0  0
    5.5996   -0.7229   -1.7252 H   0  0  0  0  0  0  0  0  0  0  0  0
    6.3491   -0.4313   -0.2361 H   0  0  0  0  0  0  0  0  0  0  0  0
  2  3  1  0
  3  4  1  0
  4  5  1  0
  5  6  1  0
  6  7  1  0
  7  8  1  0
  8  9  2  0
  9 10  1  0
 10 11  1  0
 11 12  1  0
 12 13  1  0
 13 14  1  0
 14 15  1  0
  1 16  1  0
  2 17  1  0
  2 18  1  0
  3 19  1  0
  3 20  1  0
  4 21  1  0
  4 22  1  0
  7 23  1  0
  7 24  1  0
  8 25  1  0
  9 26  1  0
 10 27  1  0
 10 28  1  0
 13 29  1  0
 13 30  1  0
 14 31  1  0
 14 32  1  0
 15 33  1  0
 15 34  1  0
M  END
$$$$
