
     RDKit          3D

 22 20  0  0  0  0  0  0  0  0999 V2000
    0.6828    0.0000    0.0000 Cl  0  0  0  0  0  0  0  0  0  0  0  0
    3.4019   -0.2482    1.6468 N   0  0  0  0  0  0  0  0  0  0  0  0
    3.0820   -0.3675    0.2594 C   0  0  0  0  0  0  0  0  0  0  0  0
    1.9886    0.5533   -0.2171 C   0  0  0  0  0  0  0  0  0  0  0  0
    0.4862    0.1530    0.7478 S   0  0  0  0  0  0  0  0  0  0  0  0
   -1.1347    1.3905    0.1599 S   0  0  0  0  0  0  0  0  0  0  0  0
   -2.0779    0.6170   -1.1945 C   0  0  0  0  0  0  0  0  0  0  0  0
   -2.7323   -0.6416   -0.6230 C   0  0  0  0  0  0  0  0  0  0  0  0
   -3.6182   -0.2936    0.4732 N   0  0  0  0  0  0  0  0  0  0  0  0
   -0.6828    0.0000    0.0000 H   0  0  0  0  0  0  0  0  0  0  0  0
    3.2778   -1.1360    2.1863 H   0  0  0  0  0  0  0  0  0  0  0  0
    4.3096    0.2158    1.8399 H   0  0  0  0  0  0  0  0  0  0  0  0
    2.8176   -1.4158    0.0302 H   0  0  0  0  0  0  0  0  0  0  0  0
    4.0109   -0.1306   -0.3292 H   0  0  0  0  0  0  0  0  0  0  0  0
    2.2520    1.6156   -0.1164 H   0  0  0  0  0  0  0  0  0  0  0  0
    1.7779    0.3208   -1.2681 H   0  0  0  0  0  0  0  0  0  0  0  0
   -1.4644    0.3822   -2.0645 H   0  0  0  0  0  0  0  0  0  0  0  0
   -2.8893    1.3165   -1.4484 H   0  0  0  0  0  0  0  0  0  0  0  0
   -3.3000   -1.1756   -1.4120 H   0  0  0  0  0  0  0  0  0  0  0  0
   -1.9792   -1.3440   -0.2353 H   0  0  0  0  0  0  0  0  0  0  0  0
   -3.6013    0.7394    0.6757 H   0  0  0  0  0  0  0  0  0  0  0  0
   -4.6072   -0.5512    0.2381 H   0  0  0  0  0  0  0  0  0  0  0  0
  2  3  1  0
  3  4  1  0
  4  5  1  0
  5  6  1  0
  6  7  1  0
  7  8  1  0
  8  9  1  0
  1 10  1  0
  2 11  1  0
  2 12  1  0
  3 13  1  0
  3 14  1  0
  4 15  1  0
  4 16  1  0
  7 17  1  0
  7 18  1  0
  8 19  1  0
  8 20  1  0
  9 21  1  0
  9 22  1  0
M  END
$$$$
