
     RDKit          3D

 35 38  0  0  0  0  0  0  0  0999 V2000
    6.5091    0.5198    0.7287 C   0  0  0  0  0  0  0  0  0  0  0  0
    5.6921    1.6177    0.9858 C   0  0  0  0  0  0  0  0  0  0  0  0
    4.3055    1.5044    0.8530 C   0  0  0  0  0  0  0  0  0  0  0  0
    3.7114    0.2934    0.4600 C   0  0  0  0  0  0  0  0  0  0  0  0
    2.2510    0.1762    0.3189 C   0  0  0  0  0  0  0  0  0  0  0  0
    1.6726   -0.2915   -0.8707 C   0  0  0  0  0  0  0  0  0  0  0  0
    0.2816   -0.4018   -1.0106 C   0  0  0  0  0  0  0  0  0  0  0  0
   -0.5742   -0.0469    0.0398 C   0  0  0  0  0  0  0  0  0  0  0  0
   -2.0368   -0.1425   -0.0554 C   0  0  0  0  0  0  0  0  0  0  0  0
   -2.8924    0.1228    0.9180 N   0  0  0  0  0  0  0  0  0  0  0  0
   -4.1454   -0.0926    0.4024 C   0  0  0  0  0  0  0  0  0  0  0  0
   -5.4025    0.0395    1.0088 C   0  0  0  0  0  0  0  0  0  0  0  0
   -6.5459   -0.2450    0.2512 C   0  0  0  0  0  0  0  0  0  0  0  0
   -6.4383   -0.6517   -1.0814 C   0  0  0  0  0  0  0  0  0  0  0  0
   -5.1909   -0.7886   -1.7024 C   0  0  0  0  0  0  0  0  0  0  0  0
   -4.0700   -0.4986   -0.9220 C   0  0  0  0  0  0  0  0  0  0  0  0
   -2.7255   -0.5209   -1.1874 N   0  0  0  0  0  0  0  0  0  0  0  0
    0.0022    0.4174    1.2300 C   0  0  0  0  0  0  0  0  0  0  0  0
    1.3910    0.5286    1.3679 C   0  0  0  0  0  0  0  0  0  0  0  0
    4.5543   -0.8016    0.2058 C   0  0  0  0  0  0  0  0  0  0  0  0
    5.9411   -0.6903    0.3392 C   0  0  0  0  0  0  0  0  0  0  0  0
    7.5873    0.6070    0.8333 H   0  0  0  0  0  0  0  0  0  0  0  0
    6.1318    2.5645    1.2886 H   0  0  0  0  0  0  0  0  0  0  0  0
    3.6863    2.3776    1.0494 H   0  0  0  0  0  0  0  0  0  0  0  0
    2.3081   -0.5652   -1.7112 H   0  0  0  0  0  0  0  0  0  0  0  0
   -0.1017   -0.7704   -1.9565 H   0  0  0  0  0  0  0  0  0  0  0  0
   -5.4769    0.3558    2.0431 H   0  0  0  0  0  0  0  0  0  0  0  0
   -7.5275   -0.1469    0.7086 H   0  0  0  0  0  0  0  0  0  0  0  0
   -7.3424   -0.8664   -1.6479 H   0  0  0  0  0  0  0  0  0  0  0  0
   -5.1085   -1.1041   -2.7365 H   0  0  0  0  0  0  0  0  0  0  0  0
   -2.3121   -0.7699   -2.0714 H   0  0  0  0  0  0  0  0  0  0  0  0
   -0.6358    0.6968    2.0677 H   0  0  0  0  0  0  0  0  0  0  0  0
    1.7954    0.8842    2.3136 H   0  0  0  0  0  0  0  0  0  0  0  0
    4.1307   -1.7602   -0.0868 H   0  0  0  0  0  0  0  0  0  0  0  0
    6.5753   -1.5507    0.1425 H   0  0  0  0  0  0  0  0  0  0  0  0
  1  2  2  0
  2  3  1  0
  3  4  2  0
  4  5  1  0
  5  6  1  0
  6  7  2  0
  7  8  1  0
  8  9  1  0
  9 10  2  0
 10 11  1  0
 11 12  2  0
 12 13  1  0
 13 14  2  0
 14 15  1  0
 15 16  2  0
 16 17  1  0
  8 18  2  0
 18 19  1  0
  4 20  1  0
 20 21  2  0
 21  1  1  0
 19  5  2  0
 17  9  1  0
 16 11  1  0
  1 22  1  0
  2 23  1  0
  3 24  1  0
  6 25  1  0
  7 26  1  0
 12 27  1  0
 13 28  1  0
 14 29  1  0
 15 30  1  0
 17 31  1  0
 18 32  1  0
 19 33  1  0
 20 34  1  0
 21 35  1  0
M  END
$$$$
