
     RDKit          3D

 25 27  0  0  0  0  0  0  0  0999 V2000
    0.1397    2.4000   -0.8415 N   0  0  0  0  0  0  0  0  0  0  0  0
    0.0468    1.0248   -0.4800 C   0  0  0  0  0  0  0  0  0  0  0  0
   -1.2291    0.4917   -0.1698 C   0  0  0  0  0  0  0  0  0  0  0  0
   -2.4363    1.2122   -0.3336 C   0  0  0  0  0  0  0  0  0  0  0  0
   -3.6686    0.6373   -0.0278 C   0  0  0  0  0  0  0  0  0  0  0  0
   -3.7128   -0.6668    0.4426 C   0  0  0  0  0  0  0  0  0  0  0  0
   -2.5247   -1.3837    0.6022 C   0  0  0  0  0  0  0  0  0  0  0  0
   -1.2854   -0.8300    0.3061 C   0  0  0  0  0  0  0  0  0  0  0  0
   -0.1910   -1.5807    0.4952 N   0  0  0  0  0  0  0  0  0  0  0  0
    1.0183   -1.0614    0.2488 C   0  0  0  0  0  0  0  0  0  0  0  0
    2.1202   -1.8669    0.4939 C   0  0  0  0  0  0  0  0  0  0  0  0
    3.4165   -1.4033    0.2916 C   0  0  0  0  0  0  0  0  0  0  0  0
    4.7567   -2.4332    0.6113 Cl  0  0  0  0  0  0  0  0  0  0  0  0
    3.6337   -0.1112   -0.1617 C   0  0  0  0  0  0  0  0  0  0  0  0
    2.5388    0.7135   -0.4181 C   0  0  0  0  0  0  0  0  0  0  0  0
    1.2113    0.2531   -0.2261 C   0  0  0  0  0  0  0  0  0  0  0  0
    0.0805    2.9838   -0.0085 H   0  0  0  0  0  0  0  0  0  0  0  0
    0.9780    2.6227   -1.3663 H   0  0  0  0  0  0  0  0  0  0  0  0
   -2.4141    2.2300   -0.7177 H   0  0  0  0  0  0  0  0  0  0  0  0
   -4.5852    1.2049   -0.1633 H   0  0  0  0  0  0  0  0  0  0  0  0
   -4.6647   -1.1322    0.6836 H   0  0  0  0  0  0  0  0  0  0  0  0
   -2.5664   -2.4064    0.9707 H   0  0  0  0  0  0  0  0  0  0  0  0
    1.9570   -2.8788    0.8572 H   0  0  0  0  0  0  0  0  0  0  0  0
    4.6432    0.2595   -0.3181 H   0  0  0  0  0  0  0  0  0  0  0  0
    2.7377    1.7211   -0.7707 H   0  0  0  0  0  0  0  0  0  0  0  0
  1  2  1  0
  2  3  2  0
  3  4  1  0
  4  5  2  0
  5  6  1  0
  6  7  2  0
  7  8  1  0
  8  9  2  0
  9 10  1  0
 10 11  2  0
 11 12  1  0
 12 13  1  0
 12 14  2  0
 14 15  1  0
 15 16  2  0
 16  2  1  0
  8  3  1  0
 16 10  1  0
  1 17  1  0
  1 18  1  0
  4 19  1  0
  5 20  1  0
  6 21  1  0
  7 22  1  0
 11 23  1  0
 14 24  1  0
 15 25  1  0
M  END
$$$$
