
     RDKit          3D

 34 36  0  0  0  0  0  0  0  0999 V2000
   -5.7556   -1.7392    0.1574 C   0  0  0  0  0  0  0  0  0  0  0  0
   -4.3491   -1.9530    0.1310 O   0  0  0  0  0  0  0  0  0  0  0  0
   -3.5558   -0.8409    0.0612 C   0  0  0  0  0  0  0  0  0  0  0  0
   -4.0016    0.4816    0.0058 C   0  0  0  0  0  0  0  0  0  0  0  0
   -3.0775    1.5248   -0.0635 C   0  0  0  0  0  0  0  0  0  0  0  0
   -3.5857    2.7957   -0.1153 O   0  0  0  0  0  0  0  0  0  0  0  0
   -1.7071    1.2545   -0.0778 C   0  0  0  0  0  0  0  0  0  0  0  0
   -0.7076    2.3258   -0.1495 C   0  0  0  0  0  0  0  0  0  0  0  0
   -1.0415    3.5045   -0.2034 O   0  0  0  0  0  0  0  0  0  0  0  0
    0.7060    1.9238   -0.1568 C   0  0  0  0  0  0  0  0  0  0  0  0
    1.0095    0.6184   -0.1086 C   0  0  0  0  0  0  0  0  0  0  0  0
    2.4083    0.1488   -0.1034 C   0  0  0  0  0  0  0  0  0  0  0  0
    3.3657    0.6836   -0.9869 C   0  0  0  0  0  0  0  0  0  0  0  0
    4.6886    0.2247   -0.9825 C   0  0  0  0  0  0  0  0  0  0  0  0
    5.0537   -0.7767   -0.0935 C   0  0  0  0  0  0  0  0  0  0  0  0
    6.3281   -1.2680   -0.0392 O   0  0  0  0  0  0  0  0  0  0  0  0
    4.1133   -1.3178    0.7778 C   0  0  0  0  0  0  0  0  0  0  0  0
    4.4799   -2.3048    1.6479 O   0  0  0  0  0  0  0  0  0  0  0  0
    2.7988   -0.8695    0.7788 C   0  0  0  0  0  0  0  0  0  0  0  0
    0.0699   -0.3986   -0.0342 O   0  0  0  0  0  0  0  0  0  0  0  0
   -1.2603   -0.0611   -0.0233 C   0  0  0  0  0  0  0  0  0  0  0  0
   -2.1819   -1.1064    0.0462 C   0  0  0  0  0  0  0  0  0  0  0  0
   -6.0979   -1.2533   -0.7623 H   0  0  0  0  0  0  0  0  0  0  0  0
   -6.2410   -2.7181    0.2173 H   0  0  0  0  0  0  0  0  0  0  0  0
   -6.0511   -1.1661    1.0424 H   0  0  0  0  0  0  0  0  0  0  0  0
   -5.0565    0.7349    0.0146 H   0  0  0  0  0  0  0  0  0  0  0  0
   -2.8313    3.4264   -0.1584 H   0  0  0  0  0  0  0  0  0  0  0  0
    1.4402    2.7179   -0.1906 H   0  0  0  0  0  0  0  0  0  0  0  0
    3.0863    1.4566   -1.7004 H   0  0  0  0  0  0  0  0  0  0  0  0
    5.4039    0.6552   -1.6759 H   0  0  0  0  0  0  0  0  0  0  0  0
    6.8632   -0.8011   -0.7040 H   0  0  0  0  0  0  0  0  0  0  0  0
    5.4292   -2.4538    1.4658 H   0  0  0  0  0  0  0  0  0  0  0  0
    2.0892   -1.3136    1.4721 H   0  0  0  0  0  0  0  0  0  0  0  0
   -1.8322   -2.1353    0.0891 H   0  0  0  0  0  0  0  0  0  0  0  0
  1  2  1  0
  2  3  1  0
  3  4  2  0
  4  5  1  0
  5  6  1  0
  5  7  2  0
  7  8  1  0
  8  9  2  0
  8 10  1  0
 10 11  2  0
 11 12  1  0
 12 13  1  0
 13 14  2  0
 14 15  1  0
 15 16  1  0
 15 17  2  0
 17 18  1  0
 17 19  1  0
 11 20  1  0
 20 21  1  0
 21 22  2  0
 22  3  1  0
 21  7  1  0
 19 12  2  0
  1 23  1  0
  1 24  1  0
  1 25  1  0
  4 26  1  0
  6 27  1  0
 10 28  1  0
 13 29  1  0
 14 30  1  0
 16 31  1  0
 18 32  1  0
 19 33  1  0
 22 34  1  0
M  END
$$$$
