
     RDKit          3D

 35 38  0  0  0  0  0  0  0  0999 V2000
    5.2733   -0.0470   -0.5576 N   0  0  0  0  0  0  0  0  0  0  0  0
    3.8888   -0.1282   -0.3735 C   0  0  0  0  0  0  0  0  0  0  0  0
    3.3019    0.3821    0.7860 C   0  0  0  0  0  0  0  0  0  0  0  0
    1.9109    0.4157    0.9285 C   0  0  0  0  0  0  0  0  0  0  0  0
    1.0760   -0.0231   -0.1083 C   0  0  0  0  0  0  0  0  0  0  0  0
   -0.3934    0.0163    0.0364 C   0  0  0  0  0  0  0  0  0  0  0  0
   -1.1218    1.1764   -0.3516 C   0  0  0  0  0  0  0  0  0  0  0  0
   -0.5313    2.3501   -0.8893 C   0  0  0  0  0  0  0  0  0  0  0  0
   -1.3022    3.4541   -1.2500 C   0  0  0  0  0  0  0  0  0  0  0  0
   -2.6769    3.4082   -1.0812 C   0  0  0  0  0  0  0  0  0  0  0  0
   -3.2669    2.2586   -0.5533 C   0  0  0  0  0  0  0  0  0  0  0  0
   -2.5191    1.1468   -0.1869 C   0  0  0  0  0  0  0  0  0  0  0  0
   -3.1745    0.0902    0.3107 N   0  0  0  0  0  0  0  0  0  0  0  0
   -2.4910   -1.0018    0.6762 C   0  0  0  0  0  0  0  0  0  0  0  0
   -3.2102   -2.0746    1.1873 C   0  0  0  0  0  0  0  0  0  0  0  0
   -2.5897   -3.2564    1.5958 C   0  0  0  0  0  0  0  0  0  0  0  0
   -1.2128   -3.3754    1.4933 C   0  0  0  0  0  0  0  0  0  0  0  0
   -0.4703   -2.3114    0.9832 C   0  0  0  0  0  0  0  0  0  0  0  0
   -1.0920   -1.1057    0.5651 C   0  0  0  0  0  0  0  0  0  0  0  0
    1.6679   -0.4802   -1.2938 C   0  0  0  0  0  0  0  0  0  0  0  0
    3.0597   -0.5110   -1.4295 C   0  0  0  0  0  0  0  0  0  0  0  0
    5.6349   -0.6962   -1.2492 H   0  0  0  0  0  0  0  0  0  0  0  0
    5.8051   -0.0689    0.3068 H   0  0  0  0  0  0  0  0  0  0  0  0
    3.9232    0.7603    1.5934 H   0  0  0  0  0  0  0  0  0  0  0  0
    1.4800    0.8011    1.8504 H   0  0  0  0  0  0  0  0  0  0  0  0
    0.5461    2.4119   -1.0320 H   0  0  0  0  0  0  0  0  0  0  0  0
   -0.8274    4.3417   -1.6597 H   0  0  0  0  0  0  0  0  0  0  0  0
   -3.2942    4.2588   -1.3567 H   0  0  0  0  0  0  0  0  0  0  0  0
   -4.3466    2.2280   -0.4230 H   0  0  0  0  0  0  0  0  0  0  0  0
   -4.2914   -1.9866    1.2700 H   0  0  0  0  0  0  0  0  0  0  0  0
   -3.1854   -4.0747    1.9908 H   0  0  0  0  0  0  0  0  0  0  0  0
   -0.7148   -4.2889    1.8071 H   0  0  0  0  0  0  0  0  0  0  0  0
    0.6093   -2.4299    0.9130 H   0  0  0  0  0  0  0  0  0  0  0  0
    1.0452   -0.8019   -2.1261 H   0  0  0  0  0  0  0  0  0  0  0  0
    3.4896   -0.8385   -2.3724 H   0  0  0  0  0  0  0  0  0  0  0  0
  1  2  1  0
  2  3  1  0
  3  4  2  0
  4  5  1  0
  5  6  1  0
  6  7  2  0
  7  8  1  0
  8  9  2  0
  9 10  1  0
 10 11  2  0
 11 12  1  0
 12 13  2  0
 13 14  1  0
 14 15  2  0
 15 16  1  0
 16 17  2  0
 17 18  1  0
 18 19  2  0
  5 20  2  0
 20 21  1  0
 21  2  2  0
 19  6  1  0
 12  7  1  0
 19 14  1  0
  1 22  1  0
  1 23  1  0
  3 24  1  0
  4 25  1  0
  8 26  1  0
  9 27  1  0
 10 28  1  0
 11 29  1  0
 15 30  1  0
 16 31  1  0
 17 32  1  0
 18 33  1  0
 20 34  1  0
 21 35  1  0
M  END
$$$$
