
     RDKit          3D

 23 25  0  0  0  0  0  0  0  0999 V2000
    0.0649   -2.4902   -0.0648 N   0  0  0  0  0  0  0  0  0  0  0  0
    0.1549   -1.0620   -0.0384 C   0  0  0  0  0  0  0  0  0  0  0  0
   -0.9777   -0.2595   -0.3062 C   0  0  0  0  0  0  0  0  0  0  0  0
   -2.2461   -0.7716   -0.6730 C   0  0  0  0  0  0  0  0  0  0  0  0
   -3.3172    0.0797   -0.9388 C   0  0  0  0  0  0  0  0  0  0  0  0
   -3.1388    1.4516   -0.8382 C   0  0  0  0  0  0  0  0  0  0  0  0
   -1.8936    1.9604   -0.4633 C   0  0  0  0  0  0  0  0  0  0  0  0
   -0.8128    1.1322   -0.1892 C   0  0  0  0  0  0  0  0  0  0  0  0
    0.3409    1.6998    0.1850 N   0  0  0  0  0  0  0  0  0  0  0  0
    1.3893    0.9327    0.4856 C   0  0  0  0  0  0  0  0  0  0  0  0
    2.5132    1.5441    0.8776 N   0  0  0  0  0  0  0  0  0  0  0  0
    3.5777    0.7699    1.1809 C   0  0  0  0  0  0  0  0  0  0  0  0
    3.5401   -0.6032    1.0911 C   0  0  0  0  0  0  0  0  0  0  0  0
    2.4314   -1.2547    0.6928 N   0  0  0  0  0  0  0  0  0  0  0  0
    1.3516   -0.4764    0.3987 C   0  0  0  0  0  0  0  0  0  0  0  0
   -0.4301   -2.8398   -0.8782 H   0  0  0  0  0  0  0  0  0  0  0  0
    1.0057   -2.8865    0.0152 H   0  0  0  0  0  0  0  0  0  0  0  0
   -2.4096   -1.8444   -0.7397 H   0  0  0  0  0  0  0  0  0  0  0  0
   -4.2852   -0.3290   -1.2173 H   0  0  0  0  0  0  0  0  0  0  0  0
   -3.9639    2.1296   -1.0406 H   0  0  0  0  0  0  0  0  0  0  0  0
   -1.7640    3.0374   -0.3753 H   0  0  0  0  0  0  0  0  0  0  0  0
    4.4700    1.2963    1.5004 H   0  0  0  0  0  0  0  0  0  0  0  0
    4.3993   -1.2167    1.3356 H   0  0  0  0  0  0  0  0  0  0  0  0
  1  2  1  0
  2  3  1  0
  3  4  2  0
  4  5  1  0
  5  6  2  0
  6  7  1  0
  7  8  2  0
  8  9  1  0
  9 10  2  0
 10 11  1  0
 11 12  2  0
 12 13  1  0
 13 14  2  0
 14 15  1  0
 15  2  2  0
  8  3  1  0
 15 10  1  0
  1 16  1  0
  1 17  1  0
  4 18  1  0
  5 19  1  0
  6 20  1  0
  7 21  1  0
 12 22  1  0
 13 23  1  0
M  END
$$$$
