
     RDKit          3D

 20 21  0  0  0  0  0  0  0  0999 V2000
    3.5173   -0.4407   -0.2383 N   0  0  0  0  0  0  0  0  0  0  0  0
    2.1644   -0.1702   -0.1925 C   0  0  0  0  0  0  0  0  0  0  0  0
    1.7823    1.0848   -0.4256 N   0  0  0  0  0  0  0  0  0  0  0  0
    0.4682    1.3322   -0.3651 C   0  0  0  0  0  0  0  0  0  0  0  0
    0.1032    2.6585   -0.6347 N   0  0  0  0  0  0  0  0  0  0  0  0
   -0.4823    0.3598   -0.0397 C   0  0  0  0  0  0  0  0  0  0  0  0
   -1.8774    0.5839    0.0693 C   0  0  0  0  0  0  0  0  0  0  0  0
   -2.7392   -0.4601    0.3955 C   0  0  0  0  0  0  0  0  0  0  0  0
   -2.2181   -1.7282    0.6172 C   0  0  0  0  0  0  0  0  0  0  0  0
   -0.8395   -1.9406    0.5164 C   0  0  0  0  0  0  0  0  0  0  0  0
    0.0416   -0.9145    0.1937 C   0  0  0  0  0  0  0  0  0  0  0  0
    1.3508   -1.1788    0.1215 N   0  0  0  0  0  0  0  0  0  0  0  0
    4.0375    0.4039   -0.0474 H   0  0  0  0  0  0  0  0  0  0  0  0
    3.7182   -1.2479    0.3352 H   0  0  0  0  0  0  0  0  0  0  0  0
   -0.5742    2.7008   -1.3880 H   0  0  0  0  0  0  0  0  0  0  0  0
    0.9587    3.1519   -0.8803 H   0  0  0  0  0  0  0  0  0  0  0  0
   -2.2862    1.5793   -0.0880 H   0  0  0  0  0  0  0  0  0  0  0  0
   -3.8082   -0.2829    0.4805 H   0  0  0  0  0  0  0  0  0  0  0  0
   -2.8764   -2.5544    0.8736 H   0  0  0  0  0  0  0  0  0  0  0  0
   -0.4407   -2.9367    0.6967 H   0  0  0  0  0  0  0  0  0  0  0  0
  1  2  1  0
  2  3  2  0
  3  4  1  0
  4  5  1  0
  4  6  2  0
  6  7  1  0
  7  8  2  0
  8  9  1  0
  9 10  2  0
 10 11  1  0
 11 12  2  0
 12  2  1  0
 11  6  1  0
  1 13  1  0
  1 14  1  0
  5 15  1  0
  5 16  1  0
  7 17  1  0
  8 18  1  0
  9 19  1  0
 10 20  1  0
M  END
$$$$
