
     RDKit          3D

 26 28  0  0  0  0  0  0  0  0999 V2000
    0.2244    2.2778   -1.0314 C   0  0  0  0  0  0  0  0  0  0  0  0
    0.0874    0.9198   -0.3818 C   0  0  0  0  0  0  0  0  0  0  0  0
   -1.1946    0.3127   -0.2489 C   0  0  0  0  0  0  0  0  0  0  0  0
   -2.4099    0.8764   -0.7172 C   0  0  0  0  0  0  0  0  0  0  0  0
   -3.6335    0.2292   -0.5408 C   0  0  0  0  0  0  0  0  0  0  0  0
   -3.6699   -0.9963    0.1035 C   0  0  0  0  0  0  0  0  0  0  0  0
   -2.4810   -1.5664    0.5583 C   0  0  0  0  0  0  0  0  0  0  0  0
   -1.2518   -0.9425    0.3905 C   0  0  0  0  0  0  0  0  0  0  0  0
   -0.1692   -1.5819    0.8481 N   0  0  0  0  0  0  0  0  0  0  0  0
    1.0405   -1.0354    0.6796 C   0  0  0  0  0  0  0  0  0  0  0  0
    2.1360   -1.7537    1.1406 C   0  0  0  0  0  0  0  0  0  0  0  0
    3.4421   -1.2847    1.0005 C   0  0  0  0  0  0  0  0  0  0  0  0
    3.6643   -0.0667    0.3796 C   0  0  0  0  0  0  0  0  0  0  0  0
    2.5783    0.6741   -0.0880 C   0  0  0  0  0  0  0  0  0  0  0  0
    1.2438    0.2138    0.0587 C   0  0  0  0  0  0  0  0  0  0  0  0
    0.3562    2.1645   -2.1116 H   0  0  0  0  0  0  0  0  0  0  0  0
   -0.6448    2.9131   -0.8394 H   0  0  0  0  0  0  0  0  0  0  0  0
    1.0665    2.8437   -0.6233 H   0  0  0  0  0  0  0  0  0  0  0  0
   -2.4214    1.8297   -1.2380 H   0  0  0  0  0  0  0  0  0  0  0  0
   -4.5502    0.6831   -0.9081 H   0  0  0  0  0  0  0  0  0  0  0  0
   -4.6132   -1.5149    0.2503 H   0  0  0  0  0  0  0  0  0  0  0  0
   -2.5122   -2.5329    1.0569 H   0  0  0  0  0  0  0  0  0  0  0  0
    1.9655   -2.7145    1.6217 H   0  0  0  0  0  0  0  0  0  0  0  0
    4.2751   -1.8753    1.3714 H   0  0  0  0  0  0  0  0  0  0  0  0
    4.6766    0.3089    0.2556 H   0  0  0  0  0  0  0  0  0  0  0  0
    2.7945    1.6182   -0.5802 H   0  0  0  0  0  0  0  0  0  0  0  0
  1  2  1  0
  2  3  2  0
  3  4  1  0
  4  5  2  0
  5  6  1  0
  6  7  2  0
  7  8  1  0
  8  9  2  0
  9 10  1  0
 10 11  2  0
 11 12  1  0
 12 13  2  0
 13 14  1  0
 14 15  2  0
 15  2  1  0
  8  3  1  0
 15 10  1  0
  1 16  1  0
  1 17  1  0
  1 18  1  0
  4 19  1  0
  5 20  1  0
  6 21  1  0
  7 22  1  0
 11 23  1  0
 12 24  1  0
 13 25  1  0
 14 26  1  0
M  END
$$$$
