
     RDKit          3D

 28 30  0  0  0  0  0  0  0  0999 V2000
   -4.5487    0.5364    0.6946 C   0  0  0  0  0  0  0  0  0  0  0  0
   -3.1440    0.0531    0.4938 C   0  0  0  0  0  0  0  0  0  0  0  0
   -2.8412   -1.3032    0.5482 C   0  0  0  0  0  0  0  0  0  0  0  0
   -1.5209   -1.7274    0.3883 C   0  0  0  0  0  0  0  0  0  0  0  0
   -0.4645   -0.8051    0.1772 C   0  0  0  0  0  0  0  0  0  0  0  0
    0.8969   -1.1667   -0.0252 C   0  0  0  0  0  0  0  0  0  0  0  0
    1.2835   -2.5373    0.0177 N   0  0  0  0  0  0  0  0  0  0  0  0
    1.8898   -0.1489   -0.0761 C   0  0  0  0  0  0  0  0  0  0  0  0
    3.2882   -0.3871   -0.1336 C   0  0  0  0  0  0  0  0  0  0  0  0
    4.2045    0.6617   -0.2129 C   0  0  0  0  0  0  0  0  0  0  0  0
    3.7437    1.9683   -0.2338 C   0  0  0  0  0  0  0  0  0  0  0  0
    2.3720    2.2138   -0.1627 C   0  0  0  0  0  0  0  0  0  0  0  0
    1.4417    1.1860   -0.0759 C   0  0  0  0  0  0  0  0  0  0  0  0
    0.1496    1.5247    0.0134 N   0  0  0  0  0  0  0  0  0  0  0  0
   -0.7747    0.5673    0.1610 C   0  0  0  0  0  0  0  0  0  0  0  0
   -2.0971    0.9669    0.3149 C   0  0  0  0  0  0  0  0  0  0  0  0
   -4.7297    1.4554    0.1272 H   0  0  0  0  0  0  0  0  0  0  0  0
   -4.7289    0.7335    1.7558 H   0  0  0  0  0  0  0  0  0  0  0  0
   -5.2720   -0.2080    0.3455 H   0  0  0  0  0  0  0  0  0  0  0  0
   -3.6236   -2.0394    0.7177 H   0  0  0  0  0  0  0  0  0  0  0  0
   -1.3236   -2.7935    0.4508 H   0  0  0  0  0  0  0  0  0  0  0  0
    2.1469   -2.7187   -0.4827 H   0  0  0  0  0  0  0  0  0  0  0  0
    0.5552   -3.1618   -0.3117 H   0  0  0  0  0  0  0  0  0  0  0  0
    3.6814   -1.3988   -0.0998 H   0  0  0  0  0  0  0  0  0  0  0  0
    5.2707    0.4551   -0.2535 H   0  0  0  0  0  0  0  0  0  0  0  0
    4.4422    2.7983   -0.2949 H   0  0  0  0  0  0  0  0  0  0  0  0
    2.0156    3.2417   -0.1666 H   0  0  0  0  0  0  0  0  0  0  0  0
   -2.3129    2.0340    0.3008 H   0  0  0  0  0  0  0  0  0  0  0  0
  1  2  1  0
  2  3  2  0
  3  4  1  0
  4  5  2  0
  5  6  1  0
  6  7  1  0
  6  8  2  0
  8  9  1  0
  9 10  2  0
 10 11  1  0
 11 12  2  0
 12 13  1  0
 13 14  2  0
 14 15  1  0
 15 16  2  0
 16  2  1  0
 15  5  1  0
 13  8  1  0
  1 17  1  0
  1 18  1  0
  1 19  1  0
  3 20  1  0
  4 21  1  0
  7 22  1  0
  7 23  1  0
  9 24  1  0
 10 25  1  0
 11 26  1  0
 12 27  1  0
 16 28  1  0
M  END
$$$$
