
     RDKit          3D

 29 31  0  0  0  0  0  0  0  0999 V2000
   -1.1973   -1.4456    2.8885 O   0  0  0  0  0  0  0  0  0  0  0  0
   -0.9063   -0.9336    1.8134 C   0  0  0  0  0  0  0  0  0  0  0  0
    0.4878   -0.6329    1.4570 C   0  0  0  0  0  0  0  0  0  0  0  0
    0.7487   -0.0746    0.2660 C   0  0  0  0  0  0  0  0  0  0  0  0
    2.1247    0.2614   -0.1481 C   0  0  0  0  0  0  0  0  0  0  0  0
    2.3863    1.4913   -0.7792 C   0  0  0  0  0  0  0  0  0  0  0  0
    3.6804    1.8253   -1.1911 C   0  0  0  0  0  0  0  0  0  0  0  0
    4.7191    0.9274   -0.9799 C   0  0  0  0  0  0  0  0  0  0  0  0
    5.9578    1.2486   -1.3763 F   0  0  0  0  0  0  0  0  0  0  0  0
    4.4737   -0.2937   -0.3665 C   0  0  0  0  0  0  0  0  0  0  0  0
    5.4751   -1.1623   -0.1696 F   0  0  0  0  0  0  0  0  0  0  0  0
    3.1877   -0.6339    0.0480 C   0  0  0  0  0  0  0  0  0  0  0  0
   -0.2202    0.2605   -0.6675 O   0  0  0  0  0  0  0  0  0  0  0  0
   -1.5343   -0.0117   -0.3750 C   0  0  0  0  0  0  0  0  0  0  0  0
   -2.4804    0.3256   -1.3448 C   0  0  0  0  0  0  0  0  0  0  0  0
   -3.8273    0.0721   -1.0966 C   0  0  0  0  0  0  0  0  0  0  0  0
   -4.7874    0.3834   -2.0135 O   0  0  0  0  0  0  0  0  0  0  0  0
   -4.2400   -0.5091    0.0995 C   0  0  0  0  0  0  0  0  0  0  0  0
   -3.2922   -0.8437    1.0625 C   0  0  0  0  0  0  0  0  0  0  0  0
   -3.7544   -1.4123    2.2182 O   0  0  0  0  0  0  0  0  0  0  0  0
   -1.9370   -0.5954    0.8253 C   0  0  0  0  0  0  0  0  0  0  0  0
    1.2413   -0.8746    2.1956 H   0  0  0  0  0  0  0  0  0  0  0  0
    1.5813    2.2049   -0.9493 H   0  0  0  0  0  0  0  0  0  0  0  0
    3.8816    2.7768   -1.6738 H   0  0  0  0  0  0  0  0  0  0  0  0
    3.0355   -1.6059    0.5088 H   0  0  0  0  0  0  0  0  0  0  0  0
   -2.1559    0.7784   -2.2763 H   0  0  0  0  0  0  0  0  0  0  0  0
   -4.3691    0.7693   -2.8007 H   0  0  0  0  0  0  0  0  0  0  0  0
   -5.2940   -0.7010    0.2804 H   0  0  0  0  0  0  0  0  0  0  0  0
   -2.9850   -1.5948    2.8033 H   0  0  0  0  0  0  0  0  0  0  0  0
  1  2  2  0
  2  3  1  0
  3  4  2  0
  4  5  1  0
  5  6  1  0
  6  7  2  0
  7  8  1  0
  8  9  1  0
  8 10  2  0
 10 11  1  0
 10 12  1  0
  4 13  1  0
 13 14  1  0
 14 15  2  0
 15 16  1  0
 16 17  1  0
 16 18  2  0
 18 19  1  0
 19 20  1  0
 19 21  2  0
 21  2  1  0
 12  5  2  0
 21 14  1  0
  3 22  1  0
  6 23  1  0
  7 24  1  0
 12 25  1  0
 15 26  1  0
 17 27  1  0
 18 28  1  0
 20 29  1  0
M  END
$$$$
