
     RDKit          3D

 32 31  0  0  0  0  0  0  0  0999 V2000
   -5.0058    2.1105    1.3265 N   0  0  0  0  0  0  0  0  0  0  0  0
   -4.4154    1.6080    0.0839 C   0  0  0  0  0  0  0  0  0  0  0  0
   -2.9056    1.3442    0.1687 C   0  0  0  0  0  0  0  0  0  0  0  0
   -2.4149    0.1811    1.4943 S   0  0  0  0  0  0  0  0  0  0  0  0
   -3.2535   -1.6025    0.8931 S   0  0  0  0  0  0  0  0  0  0  0  0
   -2.0310   -2.2684   -0.2819 C   0  0  0  0  0  0  0  0  0  0  0  0
   -0.8066   -2.7449    0.4408 C   0  0  0  0  0  0  0  0  0  0  0  0
    0.4349   -2.2316    0.3766 C   0  0  0  0  0  0  0  0  0  0  0  0
    0.8798   -1.0119   -0.3738 C   0  0  0  0  0  0  0  0  0  0  0  0
    1.8504   -1.5312   -1.8232 S   0  0  0  0  0  0  0  0  0  0  0  0
    2.3862    0.2686   -2.6647 S   0  0  0  0  0  0  0  0  0  0  0  0
    4.0682    0.5821   -2.0134 C   0  0  0  0  0  0  0  0  0  0  0  0
    4.1152    0.8023   -0.5000 C   0  0  0  0  0  0  0  0  0  0  0  0
    5.4581    1.1901   -0.0608 N   0  0  0  0  0  0  0  0  0  0  0  0
   -4.8661    1.4059    2.0548 H   0  0  0  0  0  0  0  0  0  0  0  0
   -4.4917    2.9308    1.6458 H   0  0  0  0  0  0  0  0  0  0  0  0
   -4.9498    0.7023   -0.2217 H   0  0  0  0  0  0  0  0  0  0  0  0
   -4.5956    2.3498   -0.7024 H   0  0  0  0  0  0  0  0  0  0  0  0
   -2.5315    0.9710   -0.7905 H   0  0  0  0  0  0  0  0  0  0  0  0
   -2.3842    2.2877    0.3654 H   0  0  0  0  0  0  0  0  0  0  0  0
   -1.8204   -1.5290   -1.0589 H   0  0  0  0  0  0  0  0  0  0  0  0
   -2.4890   -3.1254   -0.7876 H   0  0  0  0  0  0  0  0  0  0  0  0
   -0.9531   -3.6304    1.0594 H   0  0  0  0  0  0  0  0  0  0  0  0
    1.2124   -2.7244    0.9600 H   0  0  0  0  0  0  0  0  0  0  0  0
    1.4912   -0.3956    0.2916 H   0  0  0  0  0  0  0  0  0  0  0  0
    0.0350   -0.4048   -0.7082 H   0  0  0  0  0  0  0  0  0  0  0  0
    4.7212   -0.2462   -2.3104 H   0  0  0  0  0  0  0  0  0  0  0  0
    4.4371    1.4779   -2.5260 H   0  0  0  0  0  0  0  0  0  0  0  0
    3.8349   -0.1099    0.0353 H   0  0  0  0  0  0  0  0  0  0  0  0
    3.4163    1.5945   -0.2099 H   0  0  0  0  0  0  0  0  0  0  0  0
    6.1150    0.4327   -0.2494 H   0  0  0  0  0  0  0  0  0  0  0  0
    5.4584    1.3169    0.9513 H   0  0  0  0  0  0  0  0  0  0  0  0
  1  2  1  0
  2  3  1  0
  3  4  1  0
  4  5  1  0
  5  6  1  0
  6  7  1  0
  7  8  2  0
  8  9  1  0
  9 10  1  0
 10 11  1  0
 11 12  1  0
 12 13  1  0
 13 14  1  0
  1 15  1  0
  1 16  1  0
  2 17  1  0
  2 18  1  0
  3 19  1  0
  3 20  1  0
  6 21  1  0
  6 22  1  0
  7 23  1  0
  8 24  1  0
  9 25  1  0
  9 26  1  0
 12 27  1  0
 12 28  1  0
 13 29  1  0
 13 30  1  0
 14 31  1  0
 14 32  1  0
M  END
$$$$
