
     RDKit          3D

 61 68  0  0  0  0  0  0  0  0999 V2000
   11.1927   -1.9489    2.6355 C   0  0  0  0  0  0  0  0  0  0  0  0
   10.1647   -2.7260    2.1082 C   0  0  0  0  0  0  0  0  0  0  0  0
    9.1087   -2.1184    1.4235 C   0  0  0  0  0  0  0  0  0  0  0  0
    9.0620   -0.7246    1.2524 C   0  0  0  0  0  0  0  0  0  0  0  0
    7.9489   -0.0859    0.5284 C   0  0  0  0  0  0  0  0  0  0  0  0
    8.1979    0.7859   -0.5496 C   0  0  0  0  0  0  0  0  0  0  0  0
    7.1669    1.4113   -1.2659 C   0  0  0  0  0  0  0  0  0  0  0  0
    5.8659    1.1271   -0.8556 C   0  0  0  0  0  0  0  0  0  0  0  0
    4.6402    1.5402   -1.3087 N   0  0  0  0  0  0  0  0  0  0  0  0
    3.6571    0.9567   -0.5394 C   0  0  0  0  0  0  0  0  0  0  0  0
    2.2162    1.1606   -0.7367 C   0  0  0  0  0  0  0  0  0  0  0  0
    1.7082    2.2244   -1.5041 C   0  0  0  0  0  0  0  0  0  0  0  0
    0.3306    2.4147   -1.6942 C   0  0  0  0  0  0  0  0  0  0  0  0
   -0.5166    1.4940   -1.0798 C   0  0  0  0  0  0  0  0  0  0  0  0
   -1.8816    1.3707   -1.0454 N   0  0  0  0  0  0  0  0  0  0  0  0
   -2.2138    0.2717   -0.2833 C   0  0  0  0  0  0  0  0  0  0  0  0
   -3.5875   -0.1775   -0.0189 C   0  0  0  0  0  0  0  0  0  0  0  0
   -3.7880   -1.2828    0.8292 C   0  0  0  0  0  0  0  0  0  0  0  0
   -5.0641   -1.7764    1.1353 C   0  0  0  0  0  0  0  0  0  0  0  0
   -6.1388   -1.1109    0.5508 C   0  0  0  0  0  0  0  0  0  0  0  0
   -7.4941   -1.3029    0.6160 N   0  0  0  0  0  0  0  0  0  0  0  0
   -8.1200   -0.3531   -0.1624 C   0  0  0  0  0  0  0  0  0  0  0  0
   -9.5744   -0.2455   -0.3394 C   0  0  0  0  0  0  0  0  0  0  0  0
  -10.4858   -1.0704    0.3375 C   0  0  0  0  0  0  0  0  0  0  0  0
  -11.8635   -0.9308    0.1353 C   0  0  0  0  0  0  0  0  0  0  0  0
  -12.3489    0.0340   -0.7441 C   0  0  0  0  0  0  0  0  0  0  0  0
  -11.4593    0.8618   -1.4222 C   0  0  0  0  0  0  0  0  0  0  0  0
  -10.0840    0.7220   -1.2198 C   0  0  0  0  0  0  0  0  0  0  0  0
   -7.2128    0.4318   -0.7215 N   0  0  0  0  0  0  0  0  0  0  0  0
   -5.9916   -0.0208   -0.2911 C   0  0  0  0  0  0  0  0  0  0  0  0
   -4.7057    0.4593   -0.5862 C   0  0  0  0  0  0  0  0  0  0  0  0
   -1.1128   -0.3036    0.1702 N   0  0  0  0  0  0  0  0  0  0  0  0
   -0.0610    0.4355   -0.3094 C   0  0  0  0  0  0  0  0  0  0  0  0
    1.3183    0.2629   -0.1286 C   0  0  0  0  0  0  0  0  0  0  0  0
    4.2107    0.1779    0.3743 N   0  0  0  0  0  0  0  0  0  0  0  0
    5.5678    0.2760    0.1969 C   0  0  0  0  0  0  0  0  0  0  0  0
    6.6134   -0.3396    0.9006 C   0  0  0  0  0  0  0  0  0  0  0  0
   10.1091    0.0404    1.7932 C   0  0  0  0  0  0  0  0  0  0  0  0
   11.1655   -0.5656    2.4791 C   0  0  0  0  0  0  0  0  0  0  0  0
   12.0131   -2.4209    3.1696 H   0  0  0  0  0  0  0  0  0  0  0  0
   10.1820   -3.8061    2.2277 H   0  0  0  0  0  0  0  0  0  0  0  0
    8.3199   -2.7455    1.0122 H   0  0  0  0  0  0  0  0  0  0  0  0
    9.2261    0.9783   -0.8554 H   0  0  0  0  0  0  0  0  0  0  0  0
    7.3811    2.0752   -2.0958 H   0  0  0  0  0  0  0  0  0  0  0  0
    4.4849    2.1546   -2.0918 H   0  0  0  0  0  0  0  0  0  0  0  0
    2.3777    2.9476   -1.9630 H   0  0  0  0  0  0  0  0  0  0  0  0
   -0.0487    3.2414   -2.2849 H   0  0  0  0  0  0  0  0  0  0  0  0
   -2.5350    1.9881   -1.5006 H   0  0  0  0  0  0  0  0  0  0  0  0
   -2.9212   -1.7789    1.2691 H   0  0  0  0  0  0  0  0  0  0  0  0
   -5.1937   -2.6295    1.7918 H   0  0  0  0  0  0  0  0  0  0  0  0
   -7.9538   -2.0268    1.1448 H   0  0  0  0  0  0  0  0  0  0  0  0
  -10.1529   -1.8322    1.0351 H   0  0  0  0  0  0  0  0  0  0  0  0
  -12.5587   -1.5761    0.6668 H   0  0  0  0  0  0  0  0  0  0  0  0
  -13.4192    0.1417   -0.9000 H   0  0  0  0  0  0  0  0  0  0  0  0
  -11.8307    1.6178   -2.1092 H   0  0  0  0  0  0  0  0  0  0  0  0
   -9.4004    1.3778   -1.7576 H   0  0  0  0  0  0  0  0  0  0  0  0
   -4.6256    1.3098   -1.2497 H   0  0  0  0  0  0  0  0  0  0  0  0
    1.6779   -0.5640    0.4771 H   0  0  0  0  0  0  0  0  0  0  0  0
    6.3732   -0.9964    1.7303 H   0  0  0  0  0  0  0  0  0  0  0  0
   10.1006    1.1240    1.6946 H   0  0  0  0  0  0  0  0  0  0  0  0
   11.9632    0.0447    2.8940 H   0  0  0  0  0  0  0  0  0  0  0  0
  1  2  2  0
  2  3  1  0
  3  4  2  0
  4  5  1  0
  5  6  2  0
  6  7  1  0
  7  8  2  0
  8  9  1  0
  9 10  1  0
 10 11  1  0
 11 12  2  0
 12 13  1  0
 13 14  2  0
 14 15  1  0
 15 16  1  0
 16 17  1  0
 17 18  2  0
 18 19  1  0
 19 20  2  0
 20 21  1  0
 21 22  1  0
 22 23  1  0
 23 24  2  0
 24 25  1  0
 25 26  2  0
 26 27  1  0
 27 28  2  0
 22 29  2  0
 29 30  1  0
 30 31  2  0
 16 32  2  0
 32 33  1  0
 33 34  2  0
 10 35  2  0
 35 36  1  0
 36 37  2  0
  4 38  1  0
 38 39  2  0
 39  1  1  0
 37  5  1  0
 36  8  1  0
 34 11  1  0
 33 14  1  0
 31 17  1  0
 30 20  1  0
 28 23  1  0
  1 40  1  0
  2 41  1  0
  3 42  1  0
  6 43  1  0
  7 44  1  0
  9 45  1  0
 12 46  1  0
 13 47  1  0
 15 48  1  0
 18 49  1  0
 19 50  1  0
 21 51  1  0
 24 52  1  0
 25 53  1  0
 26 54  1  0
 27 55  1  0
 28 56  1  0
 31 57  1  0
 34 58  1  0
 37 59  1  0
 38 60  1  0
 39 61  1  0
M  END
$$$$
