
     RDKit          3D

 52 57  0  0  0  0  0  0  0  0999 V2000
  -10.5057   -1.4631   -0.2437 C   0  0  0  0  0  0  0  0  0  0  0  0
   -9.1356   -0.8913   -0.0245 C   0  0  0  0  0  0  0  0  0  0  0  0
   -8.2280   -0.8088   -1.0888 C   0  0  0  0  0  0  0  0  0  0  0  0
   -6.9425   -0.2990   -0.8872 C   0  0  0  0  0  0  0  0  0  0  0  0
   -6.5491    0.1176    0.3904 C   0  0  0  0  0  0  0  0  0  0  0  0
   -5.1869    0.6621    0.6509 C   0  0  0  0  0  0  0  0  0  0  0  0
   -5.0825    1.5860    1.4467 O   0  0  0  0  0  0  0  0  0  0  0  0
   -4.1771    0.0050   -0.0263 N   0  0  0  0  0  0  0  0  0  0  0  0
   -2.8624    0.3931    0.0666 C   0  0  0  0  0  0  0  0  0  0  0  0
   -2.3469    1.4251    0.6905 N   0  0  0  0  0  0  0  0  0  0  0  0
   -0.9949    1.3673    0.4740 C   0  0  0  0  0  0  0  0  0  0  0  0
    0.0241    2.2173    0.9181 C   0  0  0  0  0  0  0  0  0  0  0  0
    1.3476    1.9294    0.5498 C   0  0  0  0  0  0  0  0  0  0  0  0
    1.6716    0.8172   -0.2507 C   0  0  0  0  0  0  0  0  0  0  0  0
    3.0712    0.5445   -0.6178 C   0  0  0  0  0  0  0  0  0  0  0  0
    3.4570    0.4159   -1.9559 C   0  0  0  0  0  0  0  0  0  0  0  0
    4.7894    0.1565   -2.2885 C   0  0  0  0  0  0  0  0  0  0  0  0
    5.7634    0.0190   -1.3102 C   0  0  0  0  0  0  0  0  0  0  0  0
    7.0348   -0.2314   -1.6702 N   0  0  0  0  0  0  0  0  0  0  0  0
    7.9430   -0.3549   -0.6853 C   0  0  0  0  0  0  0  0  0  0  0  0
    9.2715   -0.6119   -1.0033 C   0  0  0  0  0  0  0  0  0  0  0  0
   10.2437   -0.7472   -0.0111 C   0  0  0  0  0  0  0  0  0  0  0  0
    9.8811   -0.6235    1.3236 C   0  0  0  0  0  0  0  0  0  0  0  0
    8.5497   -0.3652    1.6532 C   0  0  0  0  0  0  0  0  0  0  0  0
    7.5743   -0.2286    0.6724 C   0  0  0  0  0  0  0  0  0  0  0  0
    6.3014    0.0203    1.0301 N   0  0  0  0  0  0  0  0  0  0  0  0
    5.3935    0.1461    0.0453 C   0  0  0  0  0  0  0  0  0  0  0  0
    4.0646    0.4050    0.3649 C   0  0  0  0  0  0  0  0  0  0  0  0
    0.6406   -0.0355   -0.6969 C   0  0  0  0  0  0  0  0  0  0  0  0
   -0.6683    0.2728   -0.3132 C   0  0  0  0  0  0  0  0  0  0  0  0
   -1.8750   -0.3304   -0.5575 N   0  0  0  0  0  0  0  0  0  0  0  0
   -7.4540    0.0438    1.4544 C   0  0  0  0  0  0  0  0  0  0  0  0
   -8.7368   -0.4685    1.2494 C   0  0  0  0  0  0  0  0  0  0  0  0
  -10.4613   -2.5570   -0.2266 H   0  0  0  0  0  0  0  0  0  0  0  0
  -11.2028   -1.1276    0.5321 H   0  0  0  0  0  0  0  0  0  0  0  0
  -10.9107   -1.1367   -1.2082 H   0  0  0  0  0  0  0  0  0  0  0  0
   -8.5260   -1.1284   -2.0855 H   0  0  0  0  0  0  0  0  0  0  0  0
   -6.2757   -0.2027   -1.7392 H   0  0  0  0  0  0  0  0  0  0  0  0
   -4.4009   -0.8270   -0.5493 H   0  0  0  0  0  0  0  0  0  0  0  0
   -0.2156    3.0779    1.5330 H   0  0  0  0  0  0  0  0  0  0  0  0
    2.1331    2.6010    0.8935 H   0  0  0  0  0  0  0  0  0  0  0  0
    2.7267    0.5306   -2.7547 H   0  0  0  0  0  0  0  0  0  0  0  0
    5.0750    0.0639   -3.3336 H   0  0  0  0  0  0  0  0  0  0  0  0
    9.5533   -0.7081   -2.0491 H   0  0  0  0  0  0  0  0  0  0  0  0
   11.2767   -0.9478   -0.2839 H   0  0  0  0  0  0  0  0  0  0  0  0
   10.6266   -0.7260    2.1083 H   0  0  0  0  0  0  0  0  0  0  0  0
    8.2630   -0.2673    2.6976 H   0  0  0  0  0  0  0  0  0  0  0  0
    3.8006    0.4899    1.4179 H   0  0  0  0  0  0  0  0  0  0  0  0
    0.8562   -0.9088   -1.3047 H   0  0  0  0  0  0  0  0  0  0  0  0
   -2.0122   -1.1683   -1.0986 H   0  0  0  0  0  0  0  0  0  0  0  0
   -7.1589    0.3845    2.4453 H   0  0  0  0  0  0  0  0  0  0  0  0
   -9.4241   -0.5265    2.0907 H   0  0  0  0  0  0  0  0  0  0  0  0
  1  2  1  0
  2  3  1  0
  3  4  2  0
  4  5  1  0
  5  6  1  0
  6  7  2  0
  6  8  1  0
  8  9  1  0
  9 10  2  0
 10 11  1  0
 11 12  2  0
 12 13  1  0
 13 14  2  0
 14 15  1  0
 15 16  2  0
 16 17  1  0
 17 18  2  0
 18 19  1  0
 19 20  2  0
 20 21  1  0
 21 22  2  0
 22 23  1  0
 23 24  2  0
 24 25  1  0
 25 26  2  0
 26 27  1  0
 27 28  2  0
 14 29  1  0
 29 30  2  0
 30 31  1  0
  5 32  2  0
 32 33  1  0
 33  2  2  0
 31  9  1  0
 30 11  1  0
 28 15  1  0
 27 18  1  0
 25 20  1  0
  1 34  1  0
  1 35  1  0
  1 36  1  0
  3 37  1  0
  4 38  1  0
  8 39  1  0
 12 40  1  0
 13 41  1  0
 16 42  1  0
 17 43  1  0
 21 44  1  0
 22 45  1  0
 23 46  1  0
 24 47  1  0
 28 48  1  0
 29 49  1  0
 31 50  1  0
 32 51  1  0
 33 52  1  0
M  END
$$$$
