
     RDKit          3D

 32 34  0  0  0  0  0  0  0  0999 V2000
    5.8377   -0.4195   -0.4131 C   0  0  0  0  0  0  0  0  0  0  0  0
    4.3635   -0.1478   -0.3629 C   0  0  0  0  0  0  0  0  0  0  0  0
    3.4751   -0.9103   -1.1273 C   0  0  0  0  0  0  0  0  0  0  0  0
    2.0980   -0.6781   -1.0559 C   0  0  0  0  0  0  0  0  0  0  0  0
    1.5789    0.3181   -0.2170 C   0  0  0  0  0  0  0  0  0  0  0  0
    0.1214    0.5409   -0.1488 C   0  0  0  0  0  0  0  0  0  0  0  0
   -0.4030    1.7726   -0.1216 C   0  0  0  0  0  0  0  0  0  0  0  0
   -1.8656    1.9453   -0.0612 C   0  0  0  0  0  0  0  0  0  0  0  0
   -2.3247    3.0790   -0.0295 O   0  0  0  0  0  0  0  0  0  0  0  0
   -2.6775    0.7065   -0.0418 C   0  0  0  0  0  0  0  0  0  0  0  0
   -4.0791    0.7050    0.0158 C   0  0  0  0  0  0  0  0  0  0  0  0
   -4.7776    1.8779    0.0590 O   0  0  0  0  0  0  0  0  0  0  0  0
   -4.7889   -0.5006    0.0301 C   0  0  0  0  0  0  0  0  0  0  0  0
   -4.0902   -1.7030   -0.0134 C   0  0  0  0  0  0  0  0  0  0  0  0
   -4.7358   -2.9036   -0.0019 O   0  0  0  0  0  0  0  0  0  0  0  0
   -2.7027   -1.7197   -0.0703 C   0  0  0  0  0  0  0  0  0  0  0  0
   -1.9985   -0.5143   -0.0843 C   0  0  0  0  0  0  0  0  0  0  0  0
   -0.6308   -0.6195   -0.1422 O   0  0  0  0  0  0  0  0  0  0  0  0
    2.4734    1.0626    0.5654 C   0  0  0  0  0  0  0  0  0  0  0  0
    3.8511    0.8305    0.4949 C   0  0  0  0  0  0  0  0  0  0  0  0
    6.4099    0.4932   -0.2162 H   0  0  0  0  0  0  0  0  0  0  0  0
    6.1050   -1.1730    0.3340 H   0  0  0  0  0  0  0  0  0  0  0  0
    6.1346   -0.7812   -1.4032 H   0  0  0  0  0  0  0  0  0  0  0  0
    3.8475   -1.6922   -1.7856 H   0  0  0  0  0  0  0  0  0  0  0  0
    1.4323   -1.2831   -1.6681 H   0  0  0  0  0  0  0  0  0  0  0  0
    0.1855    2.6806   -0.1513 H   0  0  0  0  0  0  0  0  0  0  0  0
   -5.7321    1.7124    0.0946 H   0  0  0  0  0  0  0  0  0  0  0  0
   -5.8727   -0.4992    0.0745 H   0  0  0  0  0  0  0  0  0  0  0  0
   -5.6948   -2.7552    0.0433 H   0  0  0  0  0  0  0  0  0  0  0  0
   -2.1706   -2.6665   -0.1026 H   0  0  0  0  0  0  0  0  0  0  0  0
    2.1099    1.8236    1.2524 H   0  0  0  0  0  0  0  0  0  0  0  0
    4.5206    1.4185    1.1190 H   0  0  0  0  0  0  0  0  0  0  0  0
  1  2  1  0
  2  3  1  0
  3  4  2  0
  4  5  1  0
  5  6  1  0
  6  7  2  0
  7  8  1  0
  8  9  2  0
  8 10  1  0
 10 11  2  0
 11 12  1  0
 11 13  1  0
 13 14  2  0
 14 15  1  0
 14 16  1  0
 16 17  2  0
 17 18  1  0
  5 19  2  0
 19 20  1  0
 20  2  2  0
 18  6  1  0
 17 10  1  0
  1 21  1  0
  1 22  1  0
  1 23  1  0
  3 24  1  0
  4 25  1  0
  7 26  1  0
 12 27  1  0
 13 28  1  0
 15 29  1  0
 16 30  1  0
 19 31  1  0
 20 32  1  0
M  END
$$$$
