
     RDKit          3D

 34 36  0  0  0  0  0  0  0  0999 V2000
    3.3695    2.9206   -1.0394 C   0  0  0  0  0  0  0  0  0  0  0  0
    4.1414    1.7378   -0.8639 O   0  0  0  0  0  0  0  0  0  0  0  0
    3.4493    0.5873   -0.5841 C   0  0  0  0  0  0  0  0  0  0  0  0
    2.0626    0.4624   -0.4793 C   0  0  0  0  0  0  0  0  0  0  0  0
    1.4730   -0.7840   -0.1909 C   0  0  0  0  0  0  0  0  0  0  0  0
    0.0045   -0.8897   -0.0743 C   0  0  0  0  0  0  0  0  0  0  0  0
   -0.6742   -1.9082   -0.6228 C   0  0  0  0  0  0  0  0  0  0  0  0
   -2.1363   -1.9487   -0.4800 C   0  0  0  0  0  0  0  0  0  0  0  0
   -2.8054   -2.8585   -0.9573 O   0  0  0  0  0  0  0  0  0  0  0  0
   -2.7668   -0.8504    0.2607 C   0  0  0  0  0  0  0  0  0  0  0  0
   -4.1511   -0.7937    0.4548 C   0  0  0  0  0  0  0  0  0  0  0  0
   -5.0106   -1.7454   -0.0243 O   0  0  0  0  0  0  0  0  0  0  0  0
   -4.7177    0.2643    1.1619 C   0  0  0  0  0  0  0  0  0  0  0  0
   -3.8890    1.2611    1.6708 C   0  0  0  0  0  0  0  0  0  0  0  0
   -4.3971    2.3165    2.3689 O   0  0  0  0  0  0  0  0  0  0  0  0
   -2.5101    1.2148    1.4836 C   0  0  0  0  0  0  0  0  0  0  0  0
   -1.9488    0.1532    0.7747 C   0  0  0  0  0  0  0  0  0  0  0  0
   -0.5853    0.1576    0.6174 O   0  0  0  0  0  0  0  0  0  0  0  0
    2.3020   -1.9011    0.0056 C   0  0  0  0  0  0  0  0  0  0  0  0
    3.6880   -1.7837   -0.0991 C   0  0  0  0  0  0  0  0  0  0  0  0
    4.2444   -0.5471   -0.3934 C   0  0  0  0  0  0  0  0  0  0  0  0
    5.6062   -0.4588   -0.4903 O   0  0  0  0  0  0  0  0  0  0  0  0
    2.6998    2.8297   -1.9009 H   0  0  0  0  0  0  0  0  0  0  0  0
    2.8139    3.1682   -0.1289 H   0  0  0  0  0  0  0  0  0  0  0  0
    4.0617    3.7437   -1.2413 H   0  0  0  0  0  0  0  0  0  0  0  0
    1.4142    1.3209   -0.6246 H   0  0  0  0  0  0  0  0  0  0  0  0
   -0.2155   -2.7130   -1.1825 H   0  0  0  0  0  0  0  0  0  0  0  0
   -4.4815   -2.4267   -0.4986 H   0  0  0  0  0  0  0  0  0  0  0  0
   -5.7936    0.2929    1.3031 H   0  0  0  0  0  0  0  0  0  0  0  0
   -5.3623    2.2162    2.4315 H   0  0  0  0  0  0  0  0  0  0  0  0
   -1.8804    2.0013    1.8899 H   0  0  0  0  0  0  0  0  0  0  0  0
    1.8812   -2.8726    0.2552 H   0  0  0  0  0  0  0  0  0  0  0  0
    4.3294   -2.6468    0.0527 H   0  0  0  0  0  0  0  0  0  0  0  0
    5.7845    0.4798   -0.6953 H   0  0  0  0  0  0  0  0  0  0  0  0
  1  2  1  0
  2  3  1  0
  3  4  1  0
  4  5  2  0
  5  6  1  0
  6  7  2  0
  7  8  1  0
  8  9  2  0
  8 10  1  0
 10 11  2  0
 11 12  1  0
 11 13  1  0
 13 14  2  0
 14 15  1  0
 14 16  1  0
 16 17  2  0
 17 18  1  0
  5 19  1  0
 19 20  2  0
 20 21  1  0
 21 22  1  0
 21  3  2  0
 18  6  1  0
 17 10  1  0
  1 23  1  0
  1 24  1  0
  1 25  1  0
  4 26  1  0
  7 27  1  0
 12 28  1  0
 13 29  1  0
 15 30  1  0
 16 31  1  0
 19 32  1  0
 20 33  1  0
 22 34  1  0
M  END
$$$$
