
     RDKit          3D

 45 47  0  0  0  0  0  0  0  0999 V2000
   -3.6188   -1.8445    1.5266 C   0  0  0  0  0  0  0  0  0  0  0  0
   -3.5523   -0.3451    1.2545 C   0  0  0  0  0  0  0  0  0  0  0  0
   -3.4061    0.0022   -0.1708 N   0  0  0  0  0  0  0  0  0  0  0  0
   -3.5321    1.4602   -0.3415 C   0  0  0  0  0  0  0  0  0  0  0  0
   -3.5708    1.9139   -1.7973 C   0  0  0  0  0  0  0  0  0  0  0  0
   -2.1987   -0.5712   -0.7983 C   0  0  0  0  0  0  0  0  0  0  0  0
   -0.8263   -0.0998   -0.2654 C   0  0  0  0  0  0  0  0  0  0  0  0
    0.2539   -0.7698   -1.0157 N   0  0  0  0  0  0  0  0  0  0  0  0
    1.5401   -0.4348   -0.4779 C   0  0  0  0  0  0  0  0  0  0  0  0
    2.2443    0.7210   -0.9176 C   0  0  0  0  0  0  0  0  0  0  0  0
    1.8042    1.5956   -1.9460 C   0  0  0  0  0  0  0  0  0  0  0  0
    2.5534    2.7090   -2.3250 C   0  0  0  0  0  0  0  0  0  0  0  0
    3.7539    2.9718   -1.6847 C   0  0  0  0  0  0  0  0  0  0  0  0
    4.1922    2.1210   -0.6688 C   0  0  0  0  0  0  0  0  0  0  0  0
    3.4637    1.0071   -0.2724 C   0  0  0  0  0  0  0  0  0  0  0  0
    3.9635    0.2603    0.7218 N   0  0  0  0  0  0  0  0  0  0  0  0
    3.2909   -0.8210    1.1405 C   0  0  0  0  0  0  0  0  0  0  0  0
    3.8332   -1.5729    2.1755 C   0  0  0  0  0  0  0  0  0  0  0  0
    3.2021   -2.7165    2.6705 C   0  0  0  0  0  0  0  0  0  0  0  0
    1.9984   -3.1280    2.1183 C   0  0  0  0  0  0  0  0  0  0  0  0
    1.4362   -2.3887    1.0795 C   0  0  0  0  0  0  0  0  0  0  0  0
    2.0662   -1.2228    0.5799 C   0  0  0  0  0  0  0  0  0  0  0  0
   -4.3732   -2.3280    0.8972 H   0  0  0  0  0  0  0  0  0  0  0  0
   -3.8933   -2.0205    2.5722 H   0  0  0  0  0  0  0  0  0  0  0  0
   -2.6546   -2.3332    1.3571 H   0  0  0  0  0  0  0  0  0  0  0  0
   -2.7517    0.1005    1.8571 H   0  0  0  0  0  0  0  0  0  0  0  0
   -4.4941    0.0812    1.6235 H   0  0  0  0  0  0  0  0  0  0  0  0
   -4.4770    1.7857    0.1125 H   0  0  0  0  0  0  0  0  0  0  0  0
   -2.7328    1.9939    0.1864 H   0  0  0  0  0  0  0  0  0  0  0  0
   -3.8270    2.9774   -1.8484 H   0  0  0  0  0  0  0  0  0  0  0  0
   -2.6016    1.7888   -2.2894 H   0  0  0  0  0  0  0  0  0  0  0  0
   -4.3265    1.3605   -2.3644 H   0  0  0  0  0  0  0  0  0  0  0  0
   -2.2443   -1.6658   -0.7352 H   0  0  0  0  0  0  0  0  0  0  0  0
   -2.2388   -0.3874   -1.8795 H   0  0  0  0  0  0  0  0  0  0  0  0
   -0.7348    0.9861   -0.3788 H   0  0  0  0  0  0  0  0  0  0  0  0
   -0.7468   -0.3388    0.8009 H   0  0  0  0  0  0  0  0  0  0  0  0
    0.2177   -0.5122   -1.9994 H   0  0  0  0  0  0  0  0  0  0  0  0
    0.8661    1.4190   -2.4638 H   0  0  0  0  0  0  0  0  0  0  0  0
    2.1993    3.3646   -3.1162 H   0  0  0  0  0  0  0  0  0  0  0  0
    4.3521    3.8339   -1.9670 H   0  0  0  0  0  0  0  0  0  0  0  0
    5.1338    2.3345   -0.1670 H   0  0  0  0  0  0  0  0  0  0  0  0
    4.7802   -1.2586    2.6089 H   0  0  0  0  0  0  0  0  0  0  0  0
    3.6574   -3.2812    3.4795 H   0  0  0  0  0  0  0  0  0  0  0  0
    1.4998   -4.0205    2.4860 H   0  0  0  0  0  0  0  0  0  0  0  0
    0.4991   -2.7269    0.6418 H   0  0  0  0  0  0  0  0  0  0  0  0
  1  2  1  0
  2  3  1  0
  3  4  1  0
  4  5  1  0
  3  6  1  0
  6  7  1  0
  7  8  1  0
  8  9  1  0
  9 10  2  0
 10 11  1  0
 11 12  2  0
 12 13  1  0
 13 14  2  0
 14 15  1  0
 15 16  2  0
 16 17  1  0
 17 18  2  0
 18 19  1  0
 19 20  2  0
 20 21  1  0
 21 22  2  0
 22  9  1  0
 15 10  1  0
 22 17  1  0
  1 23  1  0
  1 24  1  0
  1 25  1  0
  2 26  1  0
  2 27  1  0
  4 28  1  0
  4 29  1  0
  5 30  1  0
  5 31  1  0
  5 32  1  0
  6 33  1  0
  6 34  1  0
  7 35  1  0
  7 36  1  0
  8 37  1  0
 11 38  1  0
 12 39  1  0
 13 40  1  0
 14 41  1  0
 18 42  1  0
 19 43  1  0
 20 44  1  0
 21 45  1  0
M  END
$$$$
