
     RDKit          3D

 38 42  0  0  0  0  0  0  0  0999 V2000
    7.5010    0.8902    0.5404 C   0  0  0  0  0  0  0  0  0  0  0  0
    6.9097   -0.3444    0.7910 C   0  0  0  0  0  0  0  0  0  0  0  0
    5.5232   -0.4861    0.6935 C   0  0  0  0  0  0  0  0  0  0  0  0
    4.7049    0.6000    0.3449 C   0  0  0  0  0  0  0  0  0  0  0  0
    3.2525    0.3977    0.2561 C   0  0  0  0  0  0  0  0  0  0  0  0
    2.6168   -0.7413    0.4786 N   0  0  0  0  0  0  0  0  0  0  0  0
    1.2818   -0.4876    0.2877 C   0  0  0  0  0  0  0  0  0  0  0  0
    0.1766   -1.3361    0.3929 C   0  0  0  0  0  0  0  0  0  0  0  0
   -1.1063   -0.8401    0.1467 C   0  0  0  0  0  0  0  0  0  0  0  0
   -2.3244   -1.4708    0.1870 N   0  0  0  0  0  0  0  0  0  0  0  0
   -3.2311   -0.5594   -0.1265 C   0  0  0  0  0  0  0  0  0  0  0  0
   -4.6804   -0.7854   -0.2091 C   0  0  0  0  0  0  0  0  0  0  0  0
   -5.1857   -2.0670    0.0613 C   0  0  0  0  0  0  0  0  0  0  0  0
   -6.5559   -2.3322   -0.0039 C   0  0  0  0  0  0  0  0  0  0  0  0
   -7.4447   -1.3161   -0.3417 C   0  0  0  0  0  0  0  0  0  0  0  0
   -6.9635   -0.0377   -0.6136 C   0  0  0  0  0  0  0  0  0  0  0  0
   -5.5908    0.2272   -0.5481 C   0  0  0  0  0  0  0  0  0  0  0  0
   -2.6108    0.6478   -0.3674 N   0  0  0  0  0  0  0  0  0  0  0  0
   -1.2604    0.4954   -0.2002 C   0  0  0  0  0  0  0  0  0  0  0  0
   -0.1807    1.3669   -0.3136 C   0  0  0  0  0  0  0  0  0  0  0  0
    1.0837    0.8414   -0.0619 C   0  0  0  0  0  0  0  0  0  0  0  0
    2.3429    1.3791   -0.0751 N   0  0  0  0  0  0  0  0  0  0  0  0
    5.3179    1.8375    0.0957 C   0  0  0  0  0  0  0  0  0  0  0  0
    6.7067    1.9803    0.1931 C   0  0  0  0  0  0  0  0  0  0  0  0
    8.5795    1.0019    0.6159 H   0  0  0  0  0  0  0  0  0  0  0  0
    7.5224   -1.2001    1.0625 H   0  0  0  0  0  0  0  0  0  0  0  0
    5.0750   -1.4590    0.8926 H   0  0  0  0  0  0  0  0  0  0  0  0
    0.3141   -2.3763    0.6648 H   0  0  0  0  0  0  0  0  0  0  0  0
   -4.5024   -2.8729    0.3271 H   0  0  0  0  0  0  0  0  0  0  0  0
   -6.9232   -3.3326    0.2097 H   0  0  0  0  0  0  0  0  0  0  0  0
   -8.5109   -1.5210   -0.3928 H   0  0  0  0  0  0  0  0  0  0  0  0
   -7.6582    0.7559   -0.8775 H   0  0  0  0  0  0  0  0  0  0  0  0
   -5.2610    1.2373   -0.7677 H   0  0  0  0  0  0  0  0  0  0  0  0
   -3.0742    1.5041   -0.6248 H   0  0  0  0  0  0  0  0  0  0  0  0
   -0.3183    2.4083   -0.5859 H   0  0  0  0  0  0  0  0  0  0  0  0
    2.5665    2.3368   -0.2919 H   0  0  0  0  0  0  0  0  0  0  0  0
    4.7388    2.7134   -0.1777 H   0  0  0  0  0  0  0  0  0  0  0  0
    7.1690    2.9447   -0.0025 H   0  0  0  0  0  0  0  0  0  0  0  0
  1  2  2  0
  2  3  1  0
  3  4  2  0
  4  5  1  0
  5  6  2  0
  6  7  1  0
  7  8  2  0
  8  9  1  0
  9 10  1  0
 10 11  2  0
 11 12  1  0
 12 13  2  0
 13 14  1  0
 14 15  2  0
 15 16  1  0
 16 17  2  0
 11 18  1  0
 18 19  1  0
 19 20  1  0
 20 21  2  0
 21 22  1  0
  4 23  1  0
 23 24  2  0
 24  1  1  0
 22  5  1  0
 21  7  1  0
 19  9  2  0
 17 12  1  0
  1 25  1  0
  2 26  1  0
  3 27  1  0
  8 28  1  0
 13 29  1  0
 14 30  1  0
 15 31  1  0
 16 32  1  0
 17 33  1  0
 18 34  1  0
 20 35  1  0
 22 36  1  0
 23 37  1  0
 24 38  1  0
M  END
$$$$
