
     RDKit          3D

 30 30  0  0  0  0  0  0  0  0999 V2000
    2.4044   -0.0676   -1.3795 C   0  0  0  0  0  0  0  0  0  0  0  0
    1.2962   -0.1238   -0.3063 C   0  0  0  0  0  0  0  0  0  0  0  0
    1.7708   -1.1006    0.7843 C   0  0  0  0  0  0  0  0  0  0  0  0
    1.1027    1.2933    0.2616 C   0  0  0  0  0  0  0  0  0  0  0  0
   -0.1911    1.4270    1.0546 C   0  0  0  0  0  0  0  0  0  0  0  0
   -0.3507    2.7782    1.4873 O   0  0  0  0  0  0  0  0  0  0  0  0
   -1.3728    1.0269    0.1805 C   0  0  0  0  0  0  0  0  0  0  0  0
   -1.2236   -0.3950   -0.3888 C   0  0  0  0  0  0  0  0  0  0  0  0
   -1.5492   -1.4580    0.6756 C   0  0  0  0  0  0  0  0  0  0  0  0
   -2.2466   -0.5681   -1.5318 C   0  0  0  0  0  0  0  0  0  0  0  0
    0.0953   -0.6095   -0.9989 N   0  0  0  0  0  0  0  0  0  0  0  0
    2.6097   -1.0601   -1.7987 H   0  0  0  0  0  0  0  0  0  0  0  0
    2.1259    0.5919   -2.2104 H   0  0  0  0  0  0  0  0  0  0  0  0
    3.3422    0.3139   -0.9586 H   0  0  0  0  0  0  0  0  0  0  0  0
    2.7687   -0.8235    1.1455 H   0  0  0  0  0  0  0  0  0  0  0  0
    1.8393   -2.1252    0.4003 H   0  0  0  0  0  0  0  0  0  0  0  0
    1.1177   -1.1139    1.6585 H   0  0  0  0  0  0  0  0  0  0  0  0
    1.0925    2.0311   -0.5537 H   0  0  0  0  0  0  0  0  0  0  0  0
    1.9529    1.5806    0.8942 H   0  0  0  0  0  0  0  0  0  0  0  0
   -0.1547    0.8135    1.9596 H   0  0  0  0  0  0  0  0  0  0  0  0
   -0.3853    3.3413    0.6946 H   0  0  0  0  0  0  0  0  0  0  0  0
   -1.4670    1.7556   -0.6375 H   0  0  0  0  0  0  0  0  0  0  0  0
   -2.3037    1.1225    0.7548 H   0  0  0  0  0  0  0  0  0  0  0  0
   -1.3734   -2.4710    0.2951 H   0  0  0  0  0  0  0  0  0  0  0  0
   -2.6044   -1.4018    0.9695 H   0  0  0  0  0  0  0  0  0  0  0  0
   -0.9662   -1.3382    1.5902 H   0  0  0  0  0  0  0  0  0  0  0  0
   -3.2692   -0.3977   -1.1751 H   0  0  0  0  0  0  0  0  0  0  0  0
   -2.0614    0.1413   -2.3475 H   0  0  0  0  0  0  0  0  0  0  0  0
   -2.2087   -1.5786   -1.9565 H   0  0  0  0  0  0  0  0  0  0  0  0
    0.2094   -1.5846   -1.2772 H   0  0  0  0  0  0  0  0  0  0  0  0
  1  2  1  0
  2  3  1  0
  2  4  1  0
  4  5  1  0
  5  6  1  0
  5  7  1  0
  7  8  1  0
  8  9  1  0
  8 10  1  0
  8 11  1  0
 11  2  1  0
  1 12  1  0
  1 13  1  0
  1 14  1  0
  3 15  1  0
  3 16  1  0
  3 17  1  0
  4 18  1  0
  4 19  1  0
  5 20  1  0
  6 21  1  0
  7 22  1  0
  7 23  1  0
  9 24  1  0
  9 25  1  0
  9 26  1  0
 10 27  1  0
 10 28  1  0
 10 29  1  0
 11 30  1  0
M  END
$$$$
