
     RDKit          3D

 29 31  0  0  0  0  0  0  0  0999 V2000
    1.8623    2.4825   -1.5797 O   0  0  0  0  0  0  0  0  0  0  0  0
    1.3110    1.5576   -0.9931 C   0  0  0  0  0  0  0  0  0  0  0  0
   -0.1456    1.3695   -1.0458 C   0  0  0  0  0  0  0  0  0  0  0  0
   -0.6932    0.3438   -0.3775 C   0  0  0  0  0  0  0  0  0  0  0  0
   -2.1478    0.0935   -0.3978 C   0  0  0  0  0  0  0  0  0  0  0  0
   -3.0753    1.1377   -0.2530 C   0  0  0  0  0  0  0  0  0  0  0  0
   -4.4499    0.8797   -0.2640 C   0  0  0  0  0  0  0  0  0  0  0  0
   -4.9074   -0.4270   -0.4142 C   0  0  0  0  0  0  0  0  0  0  0  0
   -6.7646   -0.7762   -0.4285 Br  0  0  0  0  0  0  0  0  0  0  0  0
   -4.0043   -1.4778   -0.5496 C   0  0  0  0  0  0  0  0  0  0  0  0
   -2.6306   -1.2173   -0.5378 C   0  0  0  0  0  0  0  0  0  0  0  0
    0.0304   -0.5806    0.3608 O   0  0  0  0  0  0  0  0  0  0  0  0
    1.3933   -0.4371    0.4355 C   0  0  0  0  0  0  0  0  0  0  0  0
    2.0909   -1.3774    1.1931 C   0  0  0  0  0  0  0  0  0  0  0  0
    3.4756   -1.2794    1.3015 C   0  0  0  0  0  0  0  0  0  0  0  0
    4.1191   -2.2191    2.0513 O   0  0  0  0  0  0  0  0  0  0  0  0
    4.1762   -0.2576    0.6657 C   0  0  0  0  0  0  0  0  0  0  0  0
    3.4740    0.6787   -0.0896 C   0  0  0  0  0  0  0  0  0  0  0  0
    4.2110    1.6616   -0.6936 O   0  0  0  0  0  0  0  0  0  0  0  0
    2.0825    0.5900   -0.2054 C   0  0  0  0  0  0  0  0  0  0  0  0
   -0.7079    2.0769   -1.6414 H   0  0  0  0  0  0  0  0  0  0  0  0
   -2.7409    2.1639   -0.1158 H   0  0  0  0  0  0  0  0  0  0  0  0
   -5.1508    1.7027   -0.1495 H   0  0  0  0  0  0  0  0  0  0  0  0
   -4.3547   -2.5004   -0.6632 H   0  0  0  0  0  0  0  0  0  0  0  0
   -1.9383   -2.0505   -0.6450 H   0  0  0  0  0  0  0  0  0  0  0  0
    1.5621   -2.1814    1.6973 H   0  0  0  0  0  0  0  0  0  0  0  0
    5.0727   -2.0288    2.0429 H   0  0  0  0  0  0  0  0  0  0  0  0
    5.2556   -0.1741    0.7450 H   0  0  0  0  0  0  0  0  0  0  0  0
    3.5944    2.2469   -1.1900 H   0  0  0  0  0  0  0  0  0  0  0  0
  1  2  2  0
  2  3  1  0
  3  4  2  0
  4  5  1  0
  5  6  1  0
  6  7  2  0
  7  8  1  0
  8  9  1  0
  8 10  2  0
 10 11  1  0
  4 12  1  0
 12 13  1  0
 13 14  2  0
 14 15  1  0
 15 16  1  0
 15 17  2  0
 17 18  1  0
 18 19  1  0
 18 20  2  0
 20  2  1  0
 11  5  2  0
 20 13  1  0
  3 21  1  0
  6 22  1  0
  7 23  1  0
 10 24  1  0
 11 25  1  0
 14 26  1  0
 16 27  1  0
 17 28  1  0
 19 29  1  0
M  END
$$$$
