
     RDKit          3D

 26 29  0  0  0  0  0  0  0  0999 V2000
   -4.3792   -0.5061   -1.0921 C   0  0  0  0  0  0  0  0  0  0  0  0
   -4.4420    0.7725   -0.5832 C   0  0  0  0  0  0  0  0  0  0  0  0
   -3.2587    1.3371   -0.1135 C   0  0  0  0  0  0  0  0  0  0  0  0
   -2.0668    0.6427   -0.1558 C   0  0  0  0  0  0  0  0  0  0  0  0
   -0.8352    1.0063    0.2416 N   0  0  0  0  0  0  0  0  0  0  0  0
   -0.0474   -0.0476   -0.0290 C   0  0  0  0  0  0  0  0  0  0  0  0
    1.3809   -0.0533    0.2575 C   0  0  0  0  0  0  0  0  0  0  0  0
    1.9541    1.0525    0.8246 C   0  0  0  0  0  0  0  0  0  0  0  0
    3.3087    0.9955    1.0753 C   0  0  0  0  0  0  0  0  0  0  0  0
    4.0049   -0.1518    0.7480 C   0  0  0  0  0  0  0  0  0  0  0  0
    5.4519   -0.1688    1.0337 N   0  0  0  0  0  0  0  0  0  0  0  0
    6.1963   -1.4403    0.6654 Se  0  0  0  0  0  2  0  0  0  0  0  0
    4.1391   -2.3871   -0.1369 N   0  0  0  0  0  0  0  0  0  0  0  0
    3.5369   -1.1819    0.2330 C   0  0  0  0  0  0  0  0  0  0  0  0
    2.1040   -1.1599   -0.0477 C   0  0  0  0  0  0  0  0  0  0  0  0
   -0.7812   -1.0445   -0.5841 N   0  0  0  0  0  0  0  0  0  0  0  0
   -2.0676   -0.6328   -0.6763 C   0  0  0  0  0  0  0  0  0  0  0  0
   -3.2226   -1.2256   -1.1517 C   0  0  0  0  0  0  0  0  0  0  0  0
   -5.3007   -0.9502   -1.4596 H   0  0  0  0  0  0  0  0  0  0  0  0
   -5.3773    1.2793   -0.5656 H   0  0  0  0  0  0  0  0  0  0  0  0
   -3.3190    2.3576    0.2906 H   0  0  0  0  0  0  0  0  0  0  0  0
   -0.6103    1.9328    0.6651 H   0  0  0  0  0  0  0  0  0  0  0  0
    1.3857    1.9385    1.0712 H   0  0  0  0  0  0  0  0  0  0  0  0
    3.7399    1.8741    1.5210 H   0  0  0  0  0  0  0  0  0  0  0  0
    1.6477   -2.0082   -0.4861 H   0  0  0  0  0  0  0  0  0  0  0  0
   -3.1421   -2.2307   -1.5454 H   0  0  0  0  0  0  0  0  0  0  0  0
  1  2  2  0
  2  3  1  0
  3  4  2  0
  4  5  1  0
  5  6  1  0
  6  7  1  0
  7  8  1  0
  8  9  2  0
  9 10  1  0
 10 11  2  0
 11 12  1  0
 12 13  1  0
 13 14  2  0
 14 15  1  0
  6 16  2  0
 16 17  1  0
 17 18  2  0
 18  1  1  0
 17  4  1  0
 15  7  2  0
 14 10  1  0
  1 19  1  0
  2 20  1  0
  3 21  1  0
  5 22  1  0
  8 23  1  0
  9 24  1  0
 15 25  1  0
 18 26  1  0
M  END
$$$$
