
     RDKit          3D

 39 43  0  0  0  0  0  0  0  0999 V2000
   -8.6807    2.7592    0.0044 N   0  0  0  0  0  0  0  0  0  0  0  0
   -7.8087    1.9996    0.1029 C   0  0  0  0  0  0  0  0  0  0  0  0
   -6.7421    1.0496    0.2274 C   0  0  0  0  0  0  0  0  0  0  0  0
   -7.0358   -0.2928    0.5102 C   0  0  0  0  0  0  0  0  0  0  0  0
   -6.0220   -1.2510    0.6395 C   0  0  0  0  0  0  0  0  0  0  0  0
   -4.7136   -0.7961    0.4719 C   0  0  0  0  0  0  0  0  0  0  0  0
   -3.4988   -1.4308    0.5253 N   0  0  0  0  0  0  0  0  0  0  0  0
   -2.5000   -0.5120    0.2845 C   0  0  0  0  0  0  0  0  0  0  0  0
   -1.0626   -0.8210    0.2604 C   0  0  0  0  0  0  0  0  0  0  0  0
   -0.5639   -2.1169    0.4877 C   0  0  0  0  0  0  0  0  0  0  0  0
    0.8105   -2.4031    0.4629 C   0  0  0  0  0  0  0  0  0  0  0  0
    1.6659   -1.3347    0.2004 C   0  0  0  0  0  0  0  0  0  0  0  0
    3.0303   -1.2417    0.1011 N   0  0  0  0  0  0  0  0  0  0  0  0
    3.3729    0.0633   -0.1778 C   0  0  0  0  0  0  0  0  0  0  0  0
    4.7484    0.5475   -0.3552 C   0  0  0  0  0  0  0  0  0  0  0  0
    5.8695   -0.2906   -0.2552 C   0  0  0  0  0  0  0  0  0  0  0  0
    7.1610    0.2184   -0.4325 C   0  0  0  0  0  0  0  0  0  0  0  0
    7.3500    1.5698   -0.7117 C   0  0  0  0  0  0  0  0  0  0  0  0
    6.2493    2.4152   -0.8143 C   0  0  0  0  0  0  0  0  0  0  0  0
    4.9603    1.9064   -0.6372 C   0  0  0  0  0  0  0  0  0  0  0  0
    2.2780    0.8008   -0.2591 N   0  0  0  0  0  0  0  0  0  0  0  0
    1.2210   -0.0425   -0.0293 C   0  0  0  0  0  0  0  0  0  0  0  0
   -0.1550    0.2239   -0.0005 C   0  0  0  0  0  0  0  0  0  0  0  0
   -3.0359    0.6799    0.0806 N   0  0  0  0  0  0  0  0  0  0  0  0
   -4.3921    0.5238    0.1919 C   0  0  0  0  0  0  0  0  0  0  0  0
   -5.4150    1.4732    0.0649 C   0  0  0  0  0  0  0  0  0  0  0  0
   -8.0723   -0.6067    0.6338 H   0  0  0  0  0  0  0  0  0  0  0  0
   -6.2504   -2.2887    0.8582 H   0  0  0  0  0  0  0  0  0  0  0  0
   -3.3632   -2.4116    0.7112 H   0  0  0  0  0  0  0  0  0  0  0  0
   -1.2355   -2.9462    0.6920 H   0  0  0  0  0  0  0  0  0  0  0  0
    1.1808   -3.4071    0.6400 H   0  0  0  0  0  0  0  0  0  0  0  0
    3.6764   -2.0060    0.2143 H   0  0  0  0  0  0  0  0  0  0  0  0
    5.7698   -1.3492   -0.0393 H   0  0  0  0  0  0  0  0  0  0  0  0
    8.0212   -0.4417   -0.3524 H   0  0  0  0  0  0  0  0  0  0  0  0
    8.3533    1.9644   -0.8492 H   0  0  0  0  0  0  0  0  0  0  0  0
    6.3881    3.4710   -1.0319 H   0  0  0  0  0  0  0  0  0  0  0  0
    4.1086    2.5808   -0.7206 H   0  0  0  0  0  0  0  0  0  0  0  0
   -0.5031    1.2370   -0.1807 H   0  0  0  0  0  0  0  0  0  0  0  0
   -5.1647    2.5063   -0.1542 H   0  0  0  0  0  0  0  0  0  0  0  0
  1  2  3  0
  2  3  1  0
  3  4  2  0
  4  5  1  0
  5  6  2  0
  6  7  1  0
  7  8  1  0
  8  9  1  0
  9 10  2  0
 10 11  1  0
 11 12  2  0
 12 13  1  0
 13 14  1  0
 14 15  1  0
 15 16  2  0
 16 17  1  0
 17 18  2  0
 18 19  1  0
 19 20  2  0
 14 21  2  0
 21 22  1  0
 22 23  2  0
  8 24  2  0
 24 25  1  0
 25 26  2  0
 26  3  1  0
 25  6  1  0
 23  9  1  0
 22 12  1  0
 20 15  1  0
  4 27  1  0
  5 28  1  0
  7 29  1  0
 10 30  1  0
 11 31  1  0
 13 32  1  0
 16 33  1  0
 17 34  1  0
 18 35  1  0
 19 36  1  0
 20 37  1  0
 23 38  1  0
 26 39  1  0
M  END
$$$$
