
     RDKit          3D

 41 45  0  0  0  0  0  0  0  0999 V2000
    8.3490    0.3232    0.0553 C   0  0  0  0  0  0  0  0  0  0  0  0
    6.8989    0.5532    0.2498 C   0  0  0  0  0  0  0  0  0  0  0  0
    6.3375    1.5661    0.8750 N   0  0  0  0  0  0  0  0  0  0  0  0
    4.9845    1.3490    0.7952 C   0  0  0  0  0  0  0  0  0  0  0  0
    3.9223    2.1181    1.2831 C   0  0  0  0  0  0  0  0  0  0  0  0
    2.6119    1.6669    1.0631 C   0  0  0  0  0  0  0  0  0  0  0  0
    2.3431    0.4692    0.3769 C   0  0  0  0  0  0  0  0  0  0  0  0
    0.9427    0.0639    0.1922 C   0  0  0  0  0  0  0  0  0  0  0  0
   -0.1160    0.8375    0.3626 N   0  0  0  0  0  0  0  0  0  0  0  0
   -1.2129    0.0580    0.0944 C   0  0  0  0  0  0  0  0  0  0  0  0
   -2.5765    0.3855    0.1194 C   0  0  0  0  0  0  0  0  0  0  0  0
   -3.5360   -0.5981   -0.1942 C   0  0  0  0  0  0  0  0  0  0  0  0
   -4.9731   -0.2739   -0.1770 C   0  0  0  0  0  0  0  0  0  0  0  0
   -5.8801   -1.0394    0.5750 C   0  0  0  0  0  0  0  0  0  0  0  0
   -7.2435   -0.7320    0.5910 C   0  0  0  0  0  0  0  0  0  0  0  0
   -7.7235    0.3474   -0.1463 C   0  0  0  0  0  0  0  0  0  0  0  0
   -6.8418    1.1197   -0.8979 C   0  0  0  0  0  0  0  0  0  0  0  0
   -5.4787    0.8115   -0.9120 C   0  0  0  0  0  0  0  0  0  0  0  0
   -3.0945   -1.8940   -0.5254 C   0  0  0  0  0  0  0  0  0  0  0  0
   -1.7362   -2.2421   -0.5551 C   0  0  0  0  0  0  0  0  0  0  0  0
   -0.8300   -1.2317   -0.2392 C   0  0  0  0  0  0  0  0  0  0  0  0
    0.5382   -1.2037   -0.1654 N   0  0  0  0  0  0  0  0  0  0  0  0
    3.4124   -0.3019   -0.1201 C   0  0  0  0  0  0  0  0  0  0  0  0
    4.7106    0.1718    0.1105 C   0  0  0  0  0  0  0  0  0  0  0  0
    5.9479   -0.3132   -0.2305 N   0  0  0  0  0  0  0  0  0  0  0  0
    8.5942    0.2908   -1.0107 H   0  0  0  0  0  0  0  0  0  0  0  0
    8.6538   -0.6230    0.5129 H   0  0  0  0  0  0  0  0  0  0  0  0
    8.9317    1.1274    0.5149 H   0  0  0  0  0  0  0  0  0  0  0  0
    4.1146    3.0426    1.8157 H   0  0  0  0  0  0  0  0  0  0  0  0
    1.7846    2.2684    1.4400 H   0  0  0  0  0  0  0  0  0  0  0  0
   -2.8702    1.3940    0.3921 H   0  0  0  0  0  0  0  0  0  0  0  0
   -5.5247   -1.8786    1.1693 H   0  0  0  0  0  0  0  0  0  0  0  0
   -7.9279   -1.3337    1.1832 H   0  0  0  0  0  0  0  0  0  0  0  0
   -8.7832    0.5879   -0.1335 H   0  0  0  0  0  0  0  0  0  0  0  0
   -7.2122    1.9628   -1.4751 H   0  0  0  0  0  0  0  0  0  0  0  0
   -4.8085    1.4234   -1.5130 H   0  0  0  0  0  0  0  0  0  0  0  0
   -3.8270   -2.6593   -0.7815 H   0  0  0  0  0  0  0  0  0  0  0  0
   -1.4185   -3.2454   -0.8155 H   0  0  0  0  0  0  0  0  0  0  0  0
    1.1469   -1.9902   -0.3252 H   0  0  0  0  0  0  0  0  0  0  0  0
    3.2575   -1.2178   -0.6765 H   0  0  0  0  0  0  0  0  0  0  0  0
    6.1327   -1.1604   -0.7468 H   0  0  0  0  0  0  0  0  0  0  0  0
  1  2  1  0
  2  3  2  0
  3  4  1  0
  4  5  2  0
  5  6  1  0
  6  7  2  0
  7  8  1  0
  8  9  2  0
  9 10  1  0
 10 11  2  0
 11 12  1  0
 12 13  1  0
 13 14  2  0
 14 15  1  0
 15 16  2  0
 16 17  1  0
 17 18  2  0
 12 19  2  0
 19 20  1  0
 20 21  2  0
 21 22  1  0
  7 23  1  0
 23 24  2  0
 24 25  1  0
 25  2  1  0
 24  4  1  0
 22  8  1  0
 21 10  1  0
 18 13  1  0
  1 26  1  0
  1 27  1  0
  1 28  1  0
  5 29  1  0
  6 30  1  0
 11 31  1  0
 14 32  1  0
 15 33  1  0
 16 34  1  0
 17 35  1  0
 18 36  1  0
 19 37  1  0
 20 38  1  0
 22 39  1  0
 23 40  1  0
 25 41  1  0
M  END
$$$$
