
     RDKit          3D

 38 38  0  0  0  0  0  0  0  0999 V2000
    4.9440    2.6227    1.3677 N   0  0  0  0  0  0  0  0  0  0  0  0
    5.7792    1.6351    0.6855 C   0  0  0  0  0  0  0  0  0  0  0  0
    5.1015    0.2685    0.5233 C   0  0  0  0  0  0  0  0  0  0  0  0
    3.8336    0.2171   -0.7989 S   0  0  0  0  0  0  0  0  0  0  0  0
    2.2343    1.2419   -0.0056 S   0  0  0  0  0  0  0  0  0  0  0  0
    1.4076    0.0067    1.0577 C   0  0  0  0  0  0  0  0  0  0  0  0
    0.6967   -1.0836    0.2850 C   0  0  0  0  0  0  0  0  0  0  0  0
    1.3595   -2.3167    0.1217 C   0  0  0  0  0  0  0  0  0  0  0  0
    0.7750   -3.3657   -0.5861 C   0  0  0  0  0  0  0  0  0  0  0  0
   -0.4854   -3.2040   -1.1447 C   0  0  0  0  0  0  0  0  0  0  0  0
   -1.1603   -1.9936   -0.9949 C   0  0  0  0  0  0  0  0  0  0  0  0
   -0.5890   -0.9193   -0.2836 C   0  0  0  0  0  0  0  0  0  0  0  0
   -1.3958    0.3548   -0.1543 C   0  0  0  0  0  0  0  0  0  0  0  0
   -2.3053    0.4828    1.4263 S   0  0  0  0  0  0  0  0  0  0  0  0
   -3.8631   -0.8469    1.2181 S   0  0  0  0  0  0  0  0  0  0  0  0
   -5.2566    0.1861    0.6362 C   0  0  0  0  0  0  0  0  0  0  0  0
   -5.0451    0.7766   -0.7593 C   0  0  0  0  0  0  0  0  0  0  0  0
   -6.2443    1.4754   -1.2289 N   0  0  0  0  0  0  0  0  0  0  0  0
    5.3877    3.5386    1.3099 H   0  0  0  0  0  0  0  0  0  0  0  0
    4.0594    2.7062    0.8596 H   0  0  0  0  0  0  0  0  0  0  0  0
    6.6878    1.5031    1.2835 H   0  0  0  0  0  0  0  0  0  0  0  0
    6.0934    2.0256   -0.2893 H   0  0  0  0  0  0  0  0  0  0  0  0
    5.8670   -0.4611    0.2365 H   0  0  0  0  0  0  0  0  0  0  0  0
    4.6716   -0.0840    1.4671 H   0  0  0  0  0  0  0  0  0  0  0  0
    0.6956    0.5366    1.6969 H   0  0  0  0  0  0  0  0  0  0  0  0
    2.1430   -0.4207    1.7494 H   0  0  0  0  0  0  0  0  0  0  0  0
    2.3502   -2.4662    0.5471 H   0  0  0  0  0  0  0  0  0  0  0  0
    1.3055   -4.3071   -0.7005 H   0  0  0  0  0  0  0  0  0  0  0  0
   -0.9471   -4.0197   -1.6947 H   0  0  0  0  0  0  0  0  0  0  0  0
   -2.1505   -1.8944   -1.4358 H   0  0  0  0  0  0  0  0  0  0  0  0
   -2.0947    0.4540   -0.9919 H   0  0  0  0  0  0  0  0  0  0  0  0
   -0.7392    1.2256   -0.2331 H   0  0  0  0  0  0  0  0  0  0  0  0
   -5.4435    0.9752    1.3732 H   0  0  0  0  0  0  0  0  0  0  0  0
   -6.1416   -0.4604    0.6305 H   0  0  0  0  0  0  0  0  0  0  0  0
   -4.2167    1.4914   -0.7583 H   0  0  0  0  0  0  0  0  0  0  0  0
   -4.8071   -0.0176   -1.4753 H   0  0  0  0  0  0  0  0  0  0  0  0
   -6.4420    2.2691   -0.6194 H   0  0  0  0  0  0  0  0  0  0  0  0
   -6.0656    1.8678   -2.1533 H   0  0  0  0  0  0  0  0  0  0  0  0
  1  2  1  0
  2  3  1  0
  3  4  1  0
  4  5  1  0
  5  6  1  0
  6  7  1  0
  7  8  2  0
  8  9  1  0
  9 10  2  0
 10 11  1  0
 11 12  2  0
 12 13  1  0
 13 14  1  0
 14 15  1  0
 15 16  1  0
 16 17  1  0
 17 18  1  0
 12  7  1  0
  1 19  1  0
  1 20  1  0
  2 21  1  0
  2 22  1  0
  3 23  1  0
  3 24  1  0
  6 25  1  0
  6 26  1  0
  8 27  1  0
  9 28  1  0
 10 29  1  0
 11 30  1  0
 13 31  1  0
 13 32  1  0
 16 33  1  0
 16 34  1  0
 17 35  1  0
 17 36  1  0
 18 37  1  0
 18 38  1  0
M  END
$$$$
