
     RDKit          3D

 27 29  0  0  0  0  0  0  0  0999 V2000
   -4.6794   -0.6854   -0.0360 N   0  0  0  0  0  0  0  0  0  0  0  0
   -3.3671   -0.2041    0.0364 C   0  0  0  0  0  0  0  0  0  0  0  0
   -3.1172    1.1624   -0.0121 C   0  0  0  0  0  0  0  0  0  0  0  0
   -1.8046    1.6329   -0.0601 C   0  0  0  0  0  0  0  0  0  0  0  0
   -0.7107    0.7406   -0.1003 C   0  0  0  0  0  0  0  0  0  0  0  0
    0.6402    1.1638   -0.1638 C   0  0  0  0  0  0  0  0  0  0  0  0
    0.9256    2.5541   -0.0219 N   0  0  0  0  0  0  0  0  0  0  0  0
    1.6802    0.1976   -0.1505 C   0  0  0  0  0  0  0  0  0  0  0  0
    3.0655    0.5042   -0.1223 C   0  0  0  0  0  0  0  0  0  0  0  0
    4.0323   -0.5012   -0.1291 C   0  0  0  0  0  0  0  0  0  0  0  0
    3.6353   -1.8287   -0.1617 C   0  0  0  0  0  0  0  0  0  0  0  0
    2.2748   -2.1396   -0.1797 C   0  0  0  0  0  0  0  0  0  0  0  0
    1.2933   -1.1573   -0.1687 C   0  0  0  0  0  0  0  0  0  0  0  0
    0.0138   -1.5561   -0.1603 N   0  0  0  0  0  0  0  0  0  0  0  0
   -0.9652   -0.6405   -0.1124 C   0  0  0  0  0  0  0  0  0  0  0  0
   -2.2837   -1.0817   -0.0677 C   0  0  0  0  0  0  0  0  0  0  0  0
   -4.7883   -1.6373    0.3007 H   0  0  0  0  0  0  0  0  0  0  0  0
   -5.3738   -0.0555    0.3531 H   0  0  0  0  0  0  0  0  0  0  0  0
   -3.9372    1.8750   -0.0181 H   0  0  0  0  0  0  0  0  0  0  0  0
   -1.6333    2.7067   -0.0933 H   0  0  0  0  0  0  0  0  0  0  0  0
    1.8190    2.8144   -0.4254 H   0  0  0  0  0  0  0  0  0  0  0  0
    0.9018    2.8098    0.9641 H   0  0  0  0  0  0  0  0  0  0  0  0
    3.4097    1.5334   -0.0954 H   0  0  0  0  0  0  0  0  0  0  0  0
    5.0886   -0.2457   -0.1107 H   0  0  0  0  0  0  0  0  0  0  0  0
    4.3746   -2.6250   -0.1694 H   0  0  0  0  0  0  0  0  0  0  0  0
    1.9687   -3.1836   -0.1973 H   0  0  0  0  0  0  0  0  0  0  0  0
   -2.4628   -2.1534   -0.1088 H   0  0  0  0  0  0  0  0  0  0  0  0
  1  2  1  0
  2  3  2  0
  3  4  1  0
  4  5  2  0
  5  6  1  0
  6  7  1  0
  6  8  2  0
  8  9  1  0
  9 10  2  0
 10 11  1  0
 11 12  2  0
 12 13  1  0
 13 14  2  0
 14 15  1  0
 15 16  2  0
 16  2  1  0
 15  5  1  0
 13  8  1  0
  1 17  1  0
  1 18  1  0
  3 19  1  0
  4 20  1  0
  7 21  1  0
  7 22  1  0
  9 23  1  0
 10 24  1  0
 11 25  1  0
 12 26  1  0
 16 27  1  0
M  END
$$$$
