
     RDKit          3D

 45 49  0  0  0  0  0  0  0  0999 V2000
   -8.6733   -0.0332   -0.3722 C   0  0  0  0  0  0  0  0  0  0  0  0
   -8.0174    0.4793    0.7440 C   0  0  0  0  0  0  0  0  0  0  0  0
   -6.6206    0.4853    0.7933 C   0  0  0  0  0  0  0  0  0  0  0  0
   -5.8554   -0.0214   -0.2704 C   0  0  0  0  0  0  0  0  0  0  0  0
   -4.3842   -0.0152   -0.2175 C   0  0  0  0  0  0  0  0  0  0  0  0
   -3.6734    1.1653    0.0433 C   0  0  0  0  0  0  0  0  0  0  0  0
   -2.2737    1.1714    0.0927 C   0  0  0  0  0  0  0  0  0  0  0  0
   -1.5362   -0.0030   -0.1167 C   0  0  0  0  0  0  0  0  0  0  0  0
   -0.0655    0.0024   -0.0640 C   0  0  0  0  0  0  0  0  0  0  0  0
    0.6995   -0.5036   -1.1237 C   0  0  0  0  0  0  0  0  0  0  0  0
    2.0984   -0.4984   -1.0698 C   0  0  0  0  0  0  0  0  0  0  0  0
    2.7802    0.0094    0.0444 C   0  0  0  0  0  0  0  0  0  0  0  0
    4.2488   -0.0106    0.0531 C   0  0  0  0  0  0  0  0  0  0  0  0
    5.0206   -0.4240   -0.9386 N   0  0  0  0  0  0  0  0  0  0  0  0
    6.3155   -0.2738   -0.5109 C   0  0  0  0  0  0  0  0  0  0  0  0
    7.5193   -0.5590   -1.1702 C   0  0  0  0  0  0  0  0  0  0  0  0
    8.7253   -0.3116   -0.5016 C   0  0  0  0  0  0  0  0  0  0  0  0
    8.7306    0.2083    0.7955 C   0  0  0  0  0  0  0  0  0  0  0  0
    7.5376    0.4986    1.4684 C   0  0  0  0  0  0  0  0  0  0  0  0
    6.3523    0.2420    0.7765 C   0  0  0  0  0  0  0  0  0  0  0  0
    5.0322    0.3983    1.1105 N   0  0  0  0  0  0  0  0  0  0  0  0
    2.0197    0.5175    1.1051 C   0  0  0  0  0  0  0  0  0  0  0  0
    0.6185    0.5134    1.0494 C   0  0  0  0  0  0  0  0  0  0  0  0
   -2.2471   -1.1834   -0.3780 C   0  0  0  0  0  0  0  0  0  0  0  0
   -3.6466   -1.1894   -0.4274 C   0  0  0  0  0  0  0  0  0  0  0  0
   -6.5376   -0.5341   -1.3865 C   0  0  0  0  0  0  0  0  0  0  0  0
   -7.9343   -0.5398   -1.4381 C   0  0  0  0  0  0  0  0  0  0  0  0
   -9.7594   -0.0378   -0.4116 H   0  0  0  0  0  0  0  0  0  0  0  0
   -8.5909    0.8728    1.5792 H   0  0  0  0  0  0  0  0  0  0  0  0
   -6.1285    0.8800    1.6800 H   0  0  0  0  0  0  0  0  0  0  0  0
   -4.2072    2.1014    0.1953 H   0  0  0  0  0  0  0  0  0  0  0  0
   -1.7613    2.1127    0.2812 H   0  0  0  0  0  0  0  0  0  0  0  0
    0.2127   -0.8984   -2.0134 H   0  0  0  0  0  0  0  0  0  0  0  0
    2.6610   -0.8963   -1.9137 H   0  0  0  0  0  0  0  0  0  0  0  0
    7.5061   -0.9624   -2.1763 H   0  0  0  0  0  0  0  0  0  0  0  0
    9.6667   -0.5281   -1.0009 H   0  0  0  0  0  0  0  0  0  0  0  0
    9.6813    0.3911    1.2926 H   0  0  0  0  0  0  0  0  0  0  0  0
    7.5429    0.9018    2.4749 H   0  0  0  0  0  0  0  0  0  0  0  0
    4.6939    0.7512    1.9910 H   0  0  0  0  0  0  0  0  0  0  0  0
    2.4871    0.9270    1.9948 H   0  0  0  0  0  0  0  0  0  0  0  0
    0.0586    0.9057    1.8967 H   0  0  0  0  0  0  0  0  0  0  0  0
   -1.7141   -2.1196   -0.5335 H   0  0  0  0  0  0  0  0  0  0  0  0
   -4.1598   -2.1298   -0.6192 H   0  0  0  0  0  0  0  0  0  0  0  0
   -5.9795   -0.9242   -2.2354 H   0  0  0  0  0  0  0  0  0  0  0  0
   -8.4425   -0.9378   -2.3124 H   0  0  0  0  0  0  0  0  0  0  0  0
  1  2  2  0
  2  3  1  0
  3  4  2  0
  4  5  1  0
  5  6  1  0
  6  7  2  0
  7  8  1  0
  8  9  1  0
  9 10  1  0
 10 11  2  0
 11 12  1  0
 12 13  1  0
 13 14  2  0
 14 15  1  0
 15 16  2  0
 16 17  1  0
 17 18  2  0
 18 19  1  0
 19 20  2  0
 20 21  1  0
 12 22  2  0
 22 23  1  0
  8 24  2  0
 24 25  1  0
  4 26  1  0
 26 27  2  0
 27  1  1  0
 25  5  2  0
 23  9  2  0
 21 13  1  0
 20 15  1  0
  1 28  1  0
  2 29  1  0
  3 30  1  0
  6 31  1  0
  7 32  1  0
 10 33  1  0
 11 34  1  0
 16 35  1  0
 17 36  1  0
 18 37  1  0
 19 38  1  0
 21 39  1  0
 22 40  1  0
 23 41  1  0
 24 42  1  0
 25 43  1  0
 26 44  1  0
 27 45  1  0
M  END
$$$$
