
     RDKit          3D

 30 33  0  0  0  0  0  0  0  0999 V2000
   -1.6190    2.8236   -0.1875 N   0  0  0  0  0  0  0  0  0  0  0  0
   -1.1754    1.4747   -0.0724 C   0  0  0  0  0  0  0  0  0  0  0  0
   -2.1227    0.4156   -0.0892 C   0  0  0  0  0  0  0  0  0  0  0  0
   -3.5300    0.5866   -0.1732 C   0  0  0  0  0  0  0  0  0  0  0  0
   -4.3999   -0.5036   -0.1519 C   0  0  0  0  0  0  0  0  0  0  0  0
   -3.8826   -1.7846   -0.0489 C   0  0  0  0  0  0  0  0  0  0  0  0
   -2.5004   -1.9628    0.0192 C   0  0  0  0  0  0  0  0  0  0  0  0
   -1.6162   -0.8917   -0.0079 C   0  0  0  0  0  0  0  0  0  0  0  0
   -0.3068   -1.1648    0.0371 N   0  0  0  0  0  0  0  0  0  0  0  0
    0.6077   -0.1775   -0.0518 C   0  0  0  0  0  0  0  0  0  0  0  0
    0.2158    1.1736   -0.1355 C   0  0  0  0  0  0  0  0  0  0  0  0
    1.2223    2.1534   -0.2712 C   0  0  0  0  0  0  0  0  0  0  0  0
    2.5721    1.8067   -0.2934 C   0  0  0  0  0  0  0  0  0  0  0  0
    2.9726    0.4930   -0.1871 C   0  0  0  0  0  0  0  0  0  0  0  0
    4.2910    0.2261   -0.2077 N   0  0  0  0  0  0  0  0  0  0  0  0
    4.6803   -1.0629   -0.1121 C   0  0  0  0  0  0  0  0  0  0  0  0
    3.8033   -2.1200    0.0052 C   0  0  0  0  0  0  0  0  0  0  0  0
    2.4436   -1.8323    0.0261 C   0  0  0  0  0  0  0  0  0  0  0  0
    1.9828   -0.5031   -0.0688 C   0  0  0  0  0  0  0  0  0  0  0  0
   -0.9648    3.4934    0.2029 H   0  0  0  0  0  0  0  0  0  0  0  0
   -2.5404    2.9734    0.2096 H   0  0  0  0  0  0  0  0  0  0  0  0
   -3.9653    1.5765   -0.2738 H   0  0  0  0  0  0  0  0  0  0  0  0
   -5.4735   -0.3488   -0.2199 H   0  0  0  0  0  0  0  0  0  0  0  0
   -4.5441   -2.6465   -0.0311 H   0  0  0  0  0  0  0  0  0  0  0  0
   -2.0984   -2.9714    0.0872 H   0  0  0  0  0  0  0  0  0  0  0  0
    0.9746    3.2052   -0.3796 H   0  0  0  0  0  0  0  0  0  0  0  0
    3.3262    2.5831   -0.3993 H   0  0  0  0  0  0  0  0  0  0  0  0
    5.7541   -1.2247   -0.1343 H   0  0  0  0  0  0  0  0  0  0  0  0
    4.1621   -3.1399    0.0779 H   0  0  0  0  0  0  0  0  0  0  0  0
    1.7310   -2.6504    0.1173 H   0  0  0  0  0  0  0  0  0  0  0  0
  1  2  1  0
  2  3  2  0
  3  4  1  0
  4  5  2  0
  5  6  1  0
  6  7  2  0
  7  8  1  0
  8  9  2  0
  9 10  1  0
 10 11  1  0
 11 12  2  0
 12 13  1  0
 13 14  2  0
 14 15  1  0
 15 16  2  0
 16 17  1  0
 17 18  2  0
 18 19  1  0
 11  2  1  0
 19 14  1  0
  8  3  1  0
 19 10  2  0
  1 20  1  0
  1 21  1  0
  4 22  1  0
  5 23  1  0
  6 24  1  0
  7 25  1  0
 12 26  1  0
 13 27  1  0
 16 28  1  0
 17 29  1  0
 18 30  1  0
M  END
$$$$
