
     RDKit          3D

 30 32  0  0  0  0  0  0  0  0999 V2000
    2.4928   -1.2375   -2.5025 O   0  0  0  0  0  0  0  0  0  0  0  0
    1.9232   -0.7525   -1.5309 C   0  0  0  0  0  0  0  0  0  0  0  0
    0.4574   -0.7431   -1.4224 C   0  0  0  0  0  0  0  0  0  0  0  0
   -0.1110   -0.1961   -0.3378 C   0  0  0  0  0  0  0  0  0  0  0  0
   -1.5765   -0.1642   -0.1628 C   0  0  0  0  0  0  0  0  0  0  0  0
   -2.1381   -0.4647    1.0924 C   0  0  0  0  0  0  0  0  0  0  0  0
   -3.5219   -0.4241    1.2905 C   0  0  0  0  0  0  0  0  0  0  0  0
   -4.3470   -0.0748    0.2336 C   0  0  0  0  0  0  0  0  0  0  0  0
   -5.6900    0.0273    0.4494 O   0  0  0  0  0  0  0  0  0  0  0  0
   -3.8089    0.1999   -1.0187 C   0  0  0  0  0  0  0  0  0  0  0  0
   -4.6247    0.4704   -2.0794 O   0  0  0  0  0  0  0  0  0  0  0  0
   -2.4338    0.1780   -1.2209 C   0  0  0  0  0  0  0  0  0  0  0  0
    0.5974    0.3587    0.7175 O   0  0  0  0  0  0  0  0  0  0  0  0
    1.9682    0.3738    0.6497 C   0  0  0  0  0  0  0  0  0  0  0  0
    2.6500    0.9511    1.7221 C   0  0  0  0  0  0  0  0  0  0  0  0
    4.0460    0.9970    1.7156 C   0  0  0  0  0  0  0  0  0  0  0  0
    4.7593    0.4663    0.6387 C   0  0  0  0  0  0  0  0  0  0  0  0
    4.0764   -0.1090   -0.4299 C   0  0  0  0  0  0  0  0  0  0  0  0
    4.8361   -0.6101   -1.4517 O   0  0  0  0  0  0  0  0  0  0  0  0
    2.6793   -0.1551   -0.4248 C   0  0  0  0  0  0  0  0  0  0  0  0
   -0.0949   -1.1962   -2.2354 H   0  0  0  0  0  0  0  0  0  0  0  0
   -1.4977   -0.7333    1.9308 H   0  0  0  0  0  0  0  0  0  0  0  0
   -3.9440   -0.6459    2.2663 H   0  0  0  0  0  0  0  0  0  0  0  0
   -5.9855    0.8089   -0.0533 H   0  0  0  0  0  0  0  0  0  0  0  0
   -5.4198   -0.0811   -1.9577 H   0  0  0  0  0  0  0  0  0  0  0  0
   -2.0439    0.4252   -2.2046 H   0  0  0  0  0  0  0  0  0  0  0  0
    2.0973    1.3657    2.5613 H   0  0  0  0  0  0  0  0  0  0  0  0
    4.5802    1.4467    2.5494 H   0  0  0  0  0  0  0  0  0  0  0  0
    5.8459    0.5009    0.6314 H   0  0  0  0  0  0  0  0  0  0  0  0
    4.2285   -0.9824   -2.1302 H   0  0  0  0  0  0  0  0  0  0  0  0
  1  2  2  0
  2  3  1  0
  3  4  2  0
  4  5  1  0
  5  6  1  0
  6  7  2  0
  7  8  1  0
  8  9  1  0
  8 10  2  0
 10 11  1  0
 10 12  1  0
  4 13  1  0
 13 14  1  0
 14 15  2  0
 15 16  1  0
 16 17  2  0
 17 18  1  0
 18 19  1  0
 18 20  2  0
 20  2  1  0
 12  5  2  0
 20 14  1  0
  3 21  1  0
  6 22  1  0
  7 23  1  0
  9 24  1  0
 11 25  1  0
 12 26  1  0
 15 27  1  0
 16 28  1  0
 17 29  1  0
 19 30  1  0
M  END
$$$$
