
     RDKit          3D

 40 43  0  0  0  0  0  0  0  0999 V2000
    2.6963    3.3491   -0.3492 O   0  0  0  0  0  0  0  0  0  0  0  0
    2.6082    2.1469   -0.1256 C   0  0  0  0  0  0  0  0  0  0  0  0
    1.3785    1.5520    0.4163 C   0  0  0  0  0  0  0  0  0  0  0  0
    1.3379    0.2295    0.6349 C   0  0  0  0  0  0  0  0  0  0  0  0
    0.1365   -0.4262    1.1855 C   0  0  0  0  0  0  0  0  0  0  0  0
    0.2653   -1.3795    2.2037 C   0  0  0  0  0  0  0  0  0  0  0  0
   -0.8604   -2.0115    2.7311 C   0  0  0  0  0  0  0  0  0  0  0  0
   -2.1295   -1.7018    2.2407 C   0  0  0  0  0  0  0  0  0  0  0  0
   -2.2962   -0.7609    1.2133 C   0  0  0  0  0  0  0  0  0  0  0  0
   -3.6343   -0.4407    0.6900 C   0  0  0  0  0  0  0  0  0  0  0  0
   -3.9192   -0.5452   -0.6831 C   0  0  0  0  0  0  0  0  0  0  0  0
   -5.1894   -0.2415   -1.1835 C   0  0  0  0  0  0  0  0  0  0  0  0
   -6.1868    0.1713   -0.3085 C   0  0  0  0  0  0  0  0  0  0  0  0
   -7.4391    0.4781   -0.7504 O   0  0  0  0  0  0  0  0  0  0  0  0
   -5.9347    0.2839    1.0519 C   0  0  0  0  0  0  0  0  0  0  0  0
   -4.6648   -0.0212    1.5485 C   0  0  0  0  0  0  0  0  0  0  0  0
   -1.1479   -0.1337    0.6953 C   0  0  0  0  0  0  0  0  0  0  0  0
    2.3968   -0.6339    0.3989 O   0  0  0  0  0  0  0  0  0  0  0  0
    3.5615   -0.1170   -0.1128 C   0  0  0  0  0  0  0  0  0  0  0  0
    4.6013   -1.0179   -0.3509 C   0  0  0  0  0  0  0  0  0  0  0  0
    5.8047   -0.5449   -0.8688 C   0  0  0  0  0  0  0  0  0  0  0  0
    6.8478   -1.3870   -1.1183 O   0  0  0  0  0  0  0  0  0  0  0  0
    5.9832    0.8071   -1.1499 C   0  0  0  0  0  0  0  0  0  0  0  0
    4.9428    1.7006   -0.9105 C   0  0  0  0  0  0  0  0  0  0  0  0
    5.1737    3.0169   -1.2056 O   0  0  0  0  0  0  0  0  0  0  0  0
    3.7296    1.2385   -0.3914 C   0  0  0  0  0  0  0  0  0  0  0  0
    0.5583    2.2273    0.6233 H   0  0  0  0  0  0  0  0  0  0  0  0
    1.2459   -1.6329    2.6016 H   0  0  0  0  0  0  0  0  0  0  0  0
   -0.7499   -2.7477    3.5232 H   0  0  0  0  0  0  0  0  0  0  0  0
   -2.9946   -2.2140    2.6582 H   0  0  0  0  0  0  0  0  0  0  0  0
   -3.1488   -0.8793   -1.3755 H   0  0  0  0  0  0  0  0  0  0  0  0
   -5.3767   -0.3362   -2.2483 H   0  0  0  0  0  0  0  0  0  0  0  0
   -7.4668    0.3573   -1.7136 H   0  0  0  0  0  0  0  0  0  0  0  0
   -6.7215    0.6103    1.7259 H   0  0  0  0  0  0  0  0  0  0  0  0
   -4.4812    0.0826    2.6160 H   0  0  0  0  0  0  0  0  0  0  0  0
   -1.2659    0.5956   -0.1048 H   0  0  0  0  0  0  0  0  0  0  0  0
    4.4583   -2.0711   -0.1310 H   0  0  0  0  0  0  0  0  0  0  0  0
    6.5915   -2.2944   -0.8847 H   0  0  0  0  0  0  0  0  0  0  0  0
    6.9271    1.1629   -1.5534 H   0  0  0  0  0  0  0  0  0  0  0  0
    4.3625    3.5290   -0.9874 H   0  0  0  0  0  0  0  0  0  0  0  0
  1  2  2  0
  2  3  1  0
  3  4  2  0
  4  5  1  0
  5  6  1  0
  6  7  2  0
  7  8  1  0
  8  9  2  0
  9 10  1  0
 10 11  1  0
 11 12  2  0
 12 13  1  0
 13 14  1  0
 13 15  2  0
 15 16  1  0
  9 17  1  0
  4 18  1  0
 18 19  1  0
 19 20  2  0
 20 21  1  0
 21 22  1  0
 21 23  2  0
 23 24  1  0
 24 25  1  0
 24 26  2  0
 26  2  1  0
 17  5  2  0
 26 19  1  0
 16 10  2  0
  3 27  1  0
  6 28  1  0
  7 29  1  0
  8 30  1  0
 11 31  1  0
 12 32  1  0
 14 33  1  0
 15 34  1  0
 16 35  1  0
 17 36  1  0
 20 37  1  0
 22 38  1  0
 23 39  1  0
 25 40  1  0
M  END
$$$$
