
     RDKit          3D

 29 31  0  0  0  0  0  0  0  0999 V2000
   -4.7049    0.1985   -0.5328 C   0  0  0  0  0  0  0  0  0  0  0  0
   -4.1680   -0.0849    0.7527 O   0  0  0  0  0  0  0  0  0  0  0  0
   -2.8094   -0.1805    0.8557 C   0  0  0  0  0  0  0  0  0  0  0  0
   -2.3415   -0.4823    2.1278 C   0  0  0  0  0  0  0  0  0  0  0  0
   -0.9707   -0.6000    2.3626 C   0  0  0  0  0  0  0  0  0  0  0  0
   -0.0379   -0.4256    1.3525 C   0  0  0  0  0  0  0  0  0  0  0  0
    1.2567   -0.5321    1.6796 N   0  0  0  0  0  0  0  0  0  0  0  0
    2.1931   -0.3354    0.7418 C   0  0  0  0  0  0  0  0  0  0  0  0
    3.5289   -0.4169    1.1153 C   0  0  0  0  0  0  0  0  0  0  0  0
    4.5664   -0.2154    0.2021 C   0  0  0  0  0  0  0  0  0  0  0  0
    4.2680    0.0725   -1.1215 C   0  0  0  0  0  0  0  0  0  0  0  0
    2.9348    0.1564   -1.5189 C   0  0  0  0  0  0  0  0  0  0  0  0
    1.8795   -0.0429   -0.5967 C   0  0  0  0  0  0  0  0  0  0  0  0
    0.5086    0.0159   -0.9527 C   0  0  0  0  0  0  0  0  0  0  0  0
    0.1685    0.4365   -2.2722 N   0  0  0  0  0  0  0  0  0  0  0  0
   -0.4873   -0.1320    0.0498 C   0  0  0  0  0  0  0  0  0  0  0  0
   -1.8865   -0.0046   -0.1756 C   0  0  0  0  0  0  0  0  0  0  0  0
   -4.4519   -0.5902   -1.2491 H   0  0  0  0  0  0  0  0  0  0  0  0
   -5.7949    0.2280   -0.4412 H   0  0  0  0  0  0  0  0  0  0  0  0
   -4.3740    1.1790   -0.8906 H   0  0  0  0  0  0  0  0  0  0  0  0
   -3.0421   -0.6241    2.9469 H   0  0  0  0  0  0  0  0  0  0  0  0
   -0.6218   -0.8290    3.3671 H   0  0  0  0  0  0  0  0  0  0  0  0
    3.7690   -0.6430    2.1519 H   0  0  0  0  0  0  0  0  0  0  0  0
    5.6000   -0.2874    0.5296 H   0  0  0  0  0  0  0  0  0  0  0  0
    5.0645    0.2253   -1.8447 H   0  0  0  0  0  0  0  0  0  0  0  0
    2.7114    0.3665   -2.5629 H   0  0  0  0  0  0  0  0  0  0  0  0
   -0.7467    0.1184   -2.5697 H   0  0  0  0  0  0  0  0  0  0  0  0
    0.2272    1.4518   -2.3363 H   0  0  0  0  0  0  0  0  0  0  0  0
   -2.2389    0.2359   -1.1705 H   0  0  0  0  0  0  0  0  0  0  0  0
  1  2  1  0
  2  3  1  0
  3  4  2  0
  4  5  1  0
  5  6  2  0
  6  7  1  0
  7  8  2  0
  8  9  1  0
  9 10  2  0
 10 11  1  0
 11 12  2  0
 12 13  1  0
 13 14  2  0
 14 15  1  0
 14 16  1  0
 16 17  2  0
 17  3  1  0
 16  6  1  0
 13  8  1  0
  1 18  1  0
  1 19  1  0
  1 20  1  0
  4 21  1  0
  5 22  1  0
  9 23  1  0
 10 24  1  0
 11 25  1  0
 12 26  1  0
 15 27  1  0
 15 28  1  0
 17 29  1  0
M  END
$$$$
