
     RDKit          3D

 27 29  0  0  0  0  0  0  0  0999 V2000
   -3.0213   -1.5425    0.0443 N   0  0  0  0  0  0  0  0  0  0  0  0
   -2.4691   -0.2420   -0.0156 C   0  0  0  0  0  0  0  0  0  0  0  0
   -3.3931    0.7983   -0.1787 C   0  0  0  0  0  0  0  0  0  0  0  0
   -2.9626    2.1096   -0.2824 C   0  0  0  0  0  0  0  0  0  0  0  0
   -1.5992    2.3791   -0.2465 C   0  0  0  0  0  0  0  0  0  0  0  0
   -0.6500    1.3728   -0.1516 C   0  0  0  0  0  0  0  0  0  0  0  0
    0.6273    1.7764   -0.1294 N   0  0  0  0  0  0  0  0  0  0  0  0
    1.6097    0.8732   -0.0399 C   0  0  0  0  0  0  0  0  0  0  0  0
    2.9217    1.3269    0.0264 C   0  0  0  0  0  0  0  0  0  0  0  0
    4.0043    0.4493    0.1155 C   0  0  0  0  0  0  0  0  0  0  0  0
    3.7763   -0.9184    0.1340 C   0  0  0  0  0  0  0  0  0  0  0  0
    2.4677   -1.3933    0.0657 C   0  0  0  0  0  0  0  0  0  0  0  0
    1.3657   -0.5070   -0.0159 C   0  0  0  0  0  0  0  0  0  0  0  0
    0.0141   -0.9343   -0.1024 C   0  0  0  0  0  0  0  0  0  0  0  0
   -0.2389   -2.3374   -0.0270 N   0  0  0  0  0  0  0  0  0  0  0  0
   -1.0560    0.0200   -0.0873 C   0  0  0  0  0  0  0  0  0  0  0  0
   -3.2058   -1.9094   -0.8867 H   0  0  0  0  0  0  0  0  0  0  0  0
   -2.4606   -2.1712    0.6083 H   0  0  0  0  0  0  0  0  0  0  0  0
   -4.4589    0.5810   -0.1874 H   0  0  0  0  0  0  0  0  0  0  0  0
   -3.6796    2.9199   -0.3771 H   0  0  0  0  0  0  0  0  0  0  0  0
   -1.2628    3.4125   -0.3067 H   0  0  0  0  0  0  0  0  0  0  0  0
    3.1056    2.3988    0.0072 H   0  0  0  0  0  0  0  0  0  0  0  0
    5.0173    0.8390    0.1651 H   0  0  0  0  0  0  0  0  0  0  0  0
    4.6082   -1.6147    0.1954 H   0  0  0  0  0  0  0  0  0  0  0  0
    2.3010   -2.4685    0.0663 H   0  0  0  0  0  0  0  0  0  0  0  0
   -1.0722   -2.5847   -0.5501 H   0  0  0  0  0  0  0  0  0  0  0  0
   -0.2889   -2.6335    0.9457 H   0  0  0  0  0  0  0  0  0  0  0  0
  1  2  1  0
  2  3  1  0
  3  4  2  0
  4  5  1  0
  5  6  2  0
  6  7  1  0
  7  8  2  0
  8  9  1  0
  9 10  2  0
 10 11  1  0
 11 12  2  0
 12 13  1  0
 13 14  2  0
 14 15  1  0
 14 16  1  0
 16  2  2  0
 16  6  1  0
 13  8  1  0
  1 17  1  0
  1 18  1  0
  3 19  1  0
  4 20  1  0
  5 21  1  0
  9 22  1  0
 10 23  1  0
 11 24  1  0
 12 25  1  0
 15 26  1  0
 15 27  1  0
M  END
$$$$
