
     RDKit          3D

 28 30  0  0  0  0  0  0  0  0999 V2000
    5.2043    0.9642    0.5292 C   0  0  0  0  0  0  0  0  0  0  0  0
    3.7288    0.7515    0.3652 C   0  0  0  0  0  0  0  0  0  0  0  0
    2.8161    1.6090    0.9846 C   0  0  0  0  0  0  0  0  0  0  0  0
    1.4410    1.3896    0.8570 C   0  0  0  0  0  0  0  0  0  0  0  0
    0.9441    0.3072    0.1167 C   0  0  0  0  0  0  0  0  0  0  0  0
   -0.5090    0.1219    0.0107 C   0  0  0  0  0  0  0  0  0  0  0  0
   -1.4268    0.8180    0.6614 N   0  0  0  0  0  0  0  0  0  0  0  0
   -2.6428    0.3216    0.2651 C   0  0  0  0  0  0  0  0  0  0  0  0
   -3.9370    0.6984    0.6504 C   0  0  0  0  0  0  0  0  0  0  0  0
   -5.0279    0.0236    0.0874 C   0  0  0  0  0  0  0  0  0  0  0  0
   -4.8327   -1.0037   -0.8397 C   0  0  0  0  0  0  0  0  0  0  0  0
   -3.5473   -1.3925   -1.2357 C   0  0  0  0  0  0  0  0  0  0  0  0
   -2.4803   -0.7025   -0.6568 C   0  0  0  0  0  0  0  0  0  0  0  0
   -1.1215   -0.8068   -0.8024 N   0  0  0  0  0  0  0  0  0  0  0  0
    1.8663   -0.5598   -0.4862 C   0  0  0  0  0  0  0  0  0  0  0  0
    3.2439   -0.3419   -0.3593 C   0  0  0  0  0  0  0  0  0  0  0  0
    5.4358    2.0291    0.6371 H   0  0  0  0  0  0  0  0  0  0  0  0
    5.7510    0.6006   -0.3472 H   0  0  0  0  0  0  0  0  0  0  0  0
    5.5628    0.4324    1.4159 H   0  0  0  0  0  0  0  0  0  0  0  0
    3.1639    2.4556    1.5722 H   0  0  0  0  0  0  0  0  0  0  0  0
    0.7483    2.0741    1.3453 H   0  0  0  0  0  0  0  0  0  0  0  0
   -4.0792    1.4969    1.3697 H   0  0  0  0  0  0  0  0  0  0  0  0
   -6.0374    0.3054    0.3772 H   0  0  0  0  0  0  0  0  0  0  0  0
   -5.6974   -1.5116   -1.2624 H   0  0  0  0  0  0  0  0  0  0  0  0
   -3.3969   -2.1894   -1.9554 H   0  0  0  0  0  0  0  0  0  0  0  0
   -0.6500   -1.4525   -1.4148 H   0  0  0  0  0  0  0  0  0  0  0  0
    1.5425   -1.4253   -1.0552 H   0  0  0  0  0  0  0  0  0  0  0  0
    3.9373   -1.0357   -0.8301 H   0  0  0  0  0  0  0  0  0  0  0  0
  1  2  1  0
  2  3  1  0
  3  4  2  0
  4  5  1  0
  5  6  1  0
  6  7  2  0
  7  8  1  0
  8  9  2  0
  9 10  1  0
 10 11  2  0
 11 12  1  0
 12 13  2  0
 13 14  1  0
  5 15  2  0
 15 16  1  0
 16  2  2  0
 14  6  1  0
 13  8  1  0
  1 17  1  0
  1 18  1  0
  1 19  1  0
  3 20  1  0
  4 21  1  0
  9 22  1  0
 10 23  1  0
 11 24  1  0
 12 25  1  0
 14 26  1  0
 15 27  1  0
 16 28  1  0
M  END
$$$$
