
     RDKit          3D

 38 42  0  0  0  0  0  0  0  0999 V2000
   -7.3710    0.4616   -0.1561 C   0  0  0  0  0  0  0  0  0  0  0  0
   -7.3633   -0.8852    0.2165 C   0  0  0  0  0  0  0  0  0  0  0  0
   -6.1635   -1.5769    0.4218 C   0  0  0  0  0  0  0  0  0  0  0  0
   -4.9850   -0.8519    0.2349 C   0  0  0  0  0  0  0  0  0  0  0  0
   -3.6616   -1.1914    0.3442 N   0  0  0  0  0  0  0  0  0  0  0  0
   -2.8890   -0.0893    0.0483 C   0  0  0  0  0  0  0  0  0  0  0  0
   -1.4209   -0.0705    0.0602 C   0  0  0  0  0  0  0  0  0  0  0  0
   -0.7520    1.1193   -0.2611 C   0  0  0  0  0  0  0  0  0  0  0  0
    0.6478    1.1925   -0.2651 C   0  0  0  0  0  0  0  0  0  0  0  0
    1.4209    0.0706    0.0540 C   0  0  0  0  0  0  0  0  0  0  0  0
    2.8890    0.0893    0.0658 C   0  0  0  0  0  0  0  0  0  0  0  0
    3.6702   -0.9374    0.3588 N   0  0  0  0  0  0  0  0  0  0  0  0
    4.9610   -0.4853    0.2487 C   0  0  0  0  0  0  0  0  0  0  0  0
    6.1717   -1.1630    0.4501 C   0  0  0  0  0  0  0  0  0  0  0  0
    7.3710   -0.4617    0.2700 C   0  0  0  0  0  0  0  0  0  0  0  0
    7.3633    0.8851   -0.1025 C   0  0  0  0  0  0  0  0  0  0  0  0
    6.1635    1.5770   -0.3076 C   0  0  0  0  0  0  0  0  0  0  0  0
    4.9850    0.8519   -0.1208 C   0  0  0  0  0  0  0  0  0  0  0  0
    3.6616    1.1914   -0.2299 N   0  0  0  0  0  0  0  0  0  0  0  0
    0.7520   -1.1193    0.3753 C   0  0  0  0  0  0  0  0  0  0  0  0
   -0.6478   -1.1925    0.3794 C   0  0  0  0  0  0  0  0  0  0  0  0
   -3.6702    0.9374   -0.2447 N   0  0  0  0  0  0  0  0  0  0  0  0
   -4.9610    0.4852   -0.1347 C   0  0  0  0  0  0  0  0  0  0  0  0
   -6.1717    1.1629   -0.3362 C   0  0  0  0  0  0  0  0  0  0  0  0
   -8.3176    0.9745   -0.3090 H   0  0  0  0  0  0  0  0  0  0  0  0
   -8.3090   -1.4069    0.3498 H   0  0  0  0  0  0  0  0  0  0  0  0
   -6.1586   -2.6220    0.7109 H   0  0  0  0  0  0  0  0  0  0  0  0
   -3.3144   -2.1017    0.6000 H   0  0  0  0  0  0  0  0  0  0  0  0
   -1.3290    2.0089   -0.5138 H   0  0  0  0  0  0  0  0  0  0  0  0
    1.1005    2.1444   -0.5231 H   0  0  0  0  0  0  0  0  0  0  0  0
    6.1689   -2.2078    0.7389 H   0  0  0  0  0  0  0  0  0  0  0  0
    8.3177   -0.9745    0.4227 H   0  0  0  0  0  0  0  0  0  0  0  0
    8.3090    1.4069   -0.2358 H   0  0  0  0  0  0  0  0  0  0  0  0
    6.1586    2.6220   -0.5967 H   0  0  0  0  0  0  0  0  0  0  0  0
    3.3144    2.1018   -0.4857 H   0  0  0  0  0  0  0  0  0  0  0  0
    1.3290   -2.0089    0.6280 H   0  0  0  0  0  0  0  0  0  0  0  0
   -1.1005   -2.1444    0.6373 H   0  0  0  0  0  0  0  0  0  0  0  0
   -6.1689    2.2077   -0.6251 H   0  0  0  0  0  0  0  0  0  0  0  0
  1  2  2  0
  2  3  1  0
  3  4  2  0
  4  5  1  0
  5  6  1  0
  6  7  1  0
  7  8  1  0
  8  9  2  0
  9 10  1  0
 10 11  1  0
 11 12  2  0
 12 13  1  0
 13 14  2  0
 14 15  1  0
 15 16  2  0
 16 17  1  0
 17 18  2  0
 18 19  1  0
 10 20  2  0
 20 21  1  0
  6 22  2  0
 22 23  1  0
 23 24  2  0
 24  1  1  0
 23  4  1  0
 21  7  2  0
 19 11  1  0
 18 13  1  0
  1 25  1  0
  2 26  1  0
  3 27  1  0
  5 28  1  0
  8 29  1  0
  9 30  1  0
 14 31  1  0
 15 32  1  0
 16 33  1  0
 17 34  1  0
 19 35  1  0
 20 36  1  0
 21 37  1  0
 24 38  1  0
M  END
$$$$
