
     RDKit          3D

 28 29  0  0  0  0  0  0  0  0999 V2000
    0.7595    0.0000    0.0000 Br  0  0  0  0  0  0  0  0  0  0  0  0
    5.3759   -0.8261   -0.1939 O   0  0  0  0  0  0  0  0  0  0  0  0
    4.0831   -0.3630    0.0944 C   0  0  0  0  0  0  0  0  0  0  0  0
    3.8763    0.6882    0.9869 C   0  0  0  0  0  0  0  0  0  0  0  0
    2.6296    1.1576    1.2847 C   0  0  0  0  0  0  0  0  0  0  0  0
    1.5307    0.5615    0.6725 C   0  0  0  0  0  0  0  0  0  0  0  0
    0.1985    0.7972    0.7605 N   0  0  0  0  0  0  0  0  0  0  0  0
   -0.4663   -0.0544   -0.0351 C   0  0  0  0  0  0  0  0  0  0  0  0
   -1.9140   -0.1184   -0.2169 C   0  0  0  0  0  0  0  0  0  0  0  0
   -2.7424    0.7327    0.4480 C   0  0  0  0  0  0  0  0  0  0  0  0
   -4.1129    0.6437    0.2514 C   0  0  0  0  0  0  0  0  0  0  0  0
   -4.6651   -0.2917   -0.6070 C   0  0  0  0  0  0  0  0  0  0  0  0
   -3.7933   -1.1497   -1.2741 C   0  0  0  0  0  0  0  0  0  0  0  0
   -2.4347   -1.0719   -1.0881 C   0  0  0  0  0  0  0  0  0  0  0  0
    0.4588   -0.8297   -0.6260 N   0  0  0  0  0  0  0  0  0  0  0  0
    1.6934   -0.4800   -0.2154 C   0  0  0  0  0  0  0  0  0  0  0  0
    2.9763   -0.9284   -0.4919 C   0  0  0  0  0  0  0  0  0  0  0  0
   -0.7595    0.0000    0.0000 H   0  0  0  0  0  0  0  0  0  0  0  0
    6.0474   -0.1060   -0.4742 H   0  0  0  0  0  0  0  0  0  0  0  0
    4.7796    1.1154    1.4358 H   0  0  0  0  0  0  0  0  0  0  0  0
    2.5100    1.9851    1.9910 H   0  0  0  0  0  0  0  0  0  0  0  0
   -0.2423    1.5252    1.3526 H   0  0  0  0  0  0  0  0  0  0  0  0
   -2.3314    1.4682    1.1209 H   0  0  0  0  0  0  0  0  0  0  0  0
   -4.8107    1.3116    0.7690 H   0  0  0  0  0  0  0  0  0  0  0  0
   -5.7333   -0.3807   -0.7773 H   0  0  0  0  0  0  0  0  0  0  0  0
   -4.2382   -1.8829   -1.9479 H   0  0  0  0  0  0  0  0  0  0  0  0
   -1.7820   -1.7577   -1.6252 H   0  0  0  0  0  0  0  0  0  0  0  0
    3.1071   -1.7455   -1.1881 H   0  0  0  0  0  0  0  0  0  0  0  0
  2  3  1  0
  3  4  2  0
  4  5  1  0
  5  6  2  0
  6  7  1  0
  7  8  1  0
  8  9  1  0
  9 10  2  0
 10 11  1  0
 11 12  2  0
 12 13  1  0
 13 14  2  0
  8 15  2  0
 15 16  1  0
 16 17  2  0
 17  3  1  0
 16  6  1  0
 14  9  1  0
  1 18  1  0
  2 19  1  0
  4 20  1  0
  5 21  1  0
  7 22  1  0
 10 23  1  0
 11 24  1  0
 12 25  1  0
 13 26  1  0
 14 27  1  0
 17 28  1  0
M  END
$$$$
