
     RDKit          3D

 48 53  0  0  0  0  0  0  0  0999 V2000
   -9.2911    0.1467    0.4509 C   0  0  0  0  0  0  0  0  0  0  0  0
   -8.4884   -0.9852    0.5656 C   0  0  0  0  0  0  0  0  0  0  0  0
   -7.1289   -0.9140    0.2495 C   0  0  0  0  0  0  0  0  0  0  0  0
   -6.5482    0.2884   -0.1878 C   0  0  0  0  0  0  0  0  0  0  0  0
   -5.1151    0.3612   -0.5220 C   0  0  0  0  0  0  0  0  0  0  0  0
   -4.6920    0.8532   -1.7721 C   0  0  0  0  0  0  0  0  0  0  0  0
   -3.3383    0.9362   -2.1295 C   0  0  0  0  0  0  0  0  0  0  0  0
   -2.4177    0.5042   -1.1768 C   0  0  0  0  0  0  0  0  0  0  0  0
   -1.0489    0.4358   -1.1750 N   0  0  0  0  0  0  0  0  0  0  0  0
   -0.6264   -0.0720    0.0341 C   0  0  0  0  0  0  0  0  0  0  0  0
    0.7799   -0.2958    0.3974 C   0  0  0  0  0  0  0  0  0  0  0  0
    1.0665   -1.1154    1.5039 C   0  0  0  0  0  0  0  0  0  0  0  0
    2.3833   -1.3807    1.9096 C   0  0  0  0  0  0  0  0  0  0  0  0
    3.4331   -0.8016    1.1885 C   0  0  0  0  0  0  0  0  0  0  0  0
    4.7877   -0.9004    1.3742 N   0  0  0  0  0  0  0  0  0  0  0  0
    5.3504   -0.1561    0.4370 C   0  0  0  0  0  0  0  0  0  0  0  0
    6.7938    0.0371    0.2460 C   0  0  0  0  0  0  0  0  0  0  0  0
    7.3231    0.9373   -0.6913 C   0  0  0  0  0  0  0  0  0  0  0  0
    8.7070    1.0854   -0.8379 C   0  0  0  0  0  0  0  0  0  0  0  0
    9.5794    0.3384   -0.0501 C   0  0  0  0  0  0  0  0  0  0  0  0
    9.0714   -0.5564    0.8869 C   0  0  0  0  0  0  0  0  0  0  0  0
    7.6898   -0.7035    1.0330 C   0  0  0  0  0  0  0  0  0  0  0  0
    4.3729    0.4114   -0.3510 N   0  0  0  0  0  0  0  0  0  0  0  0
    3.1421    0.0131    0.1050 C   0  0  0  0  0  0  0  0  0  0  0  0
    1.8378    0.2919   -0.3238 C   0  0  0  0  0  0  0  0  0  0  0  0
   -1.6742   -0.3434    0.7935 N   0  0  0  0  0  0  0  0  0  0  0  0
   -2.7824    0.0106    0.0660 C   0  0  0  0  0  0  0  0  0  0  0  0
   -4.1416   -0.0643    0.4041 C   0  0  0  0  0  0  0  0  0  0  0  0
   -7.3762    1.4184   -0.2957 C   0  0  0  0  0  0  0  0  0  0  0  0
   -8.7358    1.3491    0.0209 C   0  0  0  0  0  0  0  0  0  0  0  0
  -10.3478    0.0922    0.6984 H   0  0  0  0  0  0  0  0  0  0  0  0
   -8.9178   -1.9258    0.9003 H   0  0  0  0  0  0  0  0  0  0  0  0
   -6.5217   -1.8130    0.3381 H   0  0  0  0  0  0  0  0  0  0  0  0
   -5.4367    1.1717   -2.5013 H   0  0  0  0  0  0  0  0  0  0  0  0
   -3.0352    1.3139   -3.0995 H   0  0  0  0  0  0  0  0  0  0  0  0
   -0.4515    0.6955   -1.9432 H   0  0  0  0  0  0  0  0  0  0  0  0
    0.2482   -1.5632    2.0680 H   0  0  0  0  0  0  0  0  0  0  0  0
    2.5891   -2.0168    2.7632 H   0  0  0  0  0  0  0  0  0  0  0  0
    6.6810    1.5459   -1.3195 H   0  0  0  0  0  0  0  0  0  0  0  0
    9.1044    1.7877   -1.5666 H   0  0  0  0  0  0  0  0  0  0  0  0
   10.6541    0.4548   -0.1638 H   0  0  0  0  0  0  0  0  0  0  0  0
    9.7457   -1.1410    1.5074 H   0  0  0  0  0  0  0  0  0  0  0  0
    7.3072   -1.4068    1.7719 H   0  0  0  0  0  0  0  0  0  0  0  0
    4.5364    1.0148   -1.1407 H   0  0  0  0  0  0  0  0  0  0  0  0
    1.6698    0.9499   -1.1672 H   0  0  0  0  0  0  0  0  0  0  0  0
   -4.4202   -0.4416    1.3827 H   0  0  0  0  0  0  0  0  0  0  0  0
   -6.9602    2.3712   -0.6166 H   0  0  0  0  0  0  0  0  0  0  0  0
   -9.3581    2.2360   -0.0646 H   0  0  0  0  0  0  0  0  0  0  0  0
  1  2  2  0
  2  3  1  0
  3  4  2  0
  4  5  1  0
  5  6  2  0
  6  7  1  0
  7  8  2  0
  8  9  1  0
  9 10  1  0
 10 11  1  0
 11 12  2  0
 12 13  1  0
 13 14  2  0
 14 15  1  0
 15 16  2  0
 16 17  1  0
 17 18  2  0
 18 19  1  0
 19 20  2  0
 20 21  1  0
 21 22  2  0
 16 23  1  0
 23 24  1  0
 24 25  2  0
 10 26  2  0
 26 27  1  0
 27 28  2  0
  4 29  1  0
 29 30  2  0
 30  1  1  0
 28  5  1  0
 27  8  1  0
 25 11  1  0
 24 14  1  0
 22 17  1  0
  1 31  1  0
  2 32  1  0
  3 33  1  0
  6 34  1  0
  7 35  1  0
  9 36  1  0
 12 37  1  0
 13 38  1  0
 18 39  1  0
 19 40  1  0
 20 41  1  0
 21 42  1  0
 22 43  1  0
 23 44  1  0
 25 45  1  0
 28 46  1  0
 29 47  1  0
 30 48  1  0
M  END
$$$$
