
     RDKit          3D

 28 30  0  0  0  0  0  0  0  0999 V2000
   -1.2505   -2.5561    0.4232 N   0  0  0  0  0  0  0  0  0  0  0  0
   -0.9061   -1.1889    0.2252 C   0  0  0  0  0  0  0  0  0  0  0  0
   -1.9067   -0.1813    0.3191 C   0  0  0  0  0  0  0  0  0  0  0  0
   -3.2838   -0.4304    0.5578 C   0  0  0  0  0  0  0  0  0  0  0  0
   -4.2152    0.6069    0.6063 C   0  0  0  0  0  0  0  0  0  0  0  0
   -3.7908    1.9127    0.4205 C   0  0  0  0  0  0  0  0  0  0  0  0
   -2.4372    2.1699    0.2000 C   0  0  0  0  0  0  0  0  0  0  0  0
   -1.4910    1.1541    0.1548 C   0  0  0  0  0  0  0  0  0  0  0  0
   -0.2129    1.5046   -0.0367 N   0  0  0  0  0  0  0  0  0  0  0  0
    0.7368    0.5639   -0.0250 C   0  0  0  0  0  0  0  0  0  0  0  0
    2.0531    0.9841   -0.1616 C   0  0  0  0  0  0  0  0  0  0  0  0
    3.1351    0.0910   -0.1422 C   0  0  0  0  0  0  0  0  0  0  0  0
    4.5467    0.6028   -0.2666 C   0  0  0  0  0  0  0  0  0  0  0  0
    5.4142   -0.3350   -0.7413 F   0  0  0  0  0  0  0  0  0  0  0  0
    5.0565    1.0121    0.9270 F   0  0  0  0  0  0  0  0  0  0  0  0
    4.6569    1.6676   -1.1082 F   0  0  0  0  0  0  0  0  0  0  0  0
    2.8722   -1.2660    0.0398 C   0  0  0  0  0  0  0  0  0  0  0  0
    1.5549   -1.7092    0.1710 C   0  0  0  0  0  0  0  0  0  0  0  0
    0.4613   -0.8075    0.1281 C   0  0  0  0  0  0  0  0  0  0  0  0
   -0.5986   -3.1982   -0.0143 H   0  0  0  0  0  0  0  0  0  0  0  0
   -2.1973   -2.7729    0.1303 H   0  0  0  0  0  0  0  0  0  0  0  0
   -3.6456   -1.4404    0.7258 H   0  0  0  0  0  0  0  0  0  0  0  0
   -5.2642    0.3923    0.7928 H   0  0  0  0  0  0  0  0  0  0  0  0
   -4.5018    2.7336    0.4553 H   0  0  0  0  0  0  0  0  0  0  0  0
   -2.1073    3.1982    0.0673 H   0  0  0  0  0  0  0  0  0  0  0  0
    2.2411    2.0514   -0.2811 H   0  0  0  0  0  0  0  0  0  0  0  0
    3.6877   -1.9868    0.0834 H   0  0  0  0  0  0  0  0  0  0  0  0
    1.3924   -2.7723    0.3268 H   0  0  0  0  0  0  0  0  0  0  0  0
  1  2  1  0
  2  3  2  0
  3  4  1  0
  4  5  2  0
  5  6  1  0
  6  7  2  0
  7  8  1  0
  8  9  2  0
  9 10  1  0
 10 11  2  0
 11 12  1  0
 12 13  1  0
 13 14  1  0
 13 15  1  0
 13 16  1  0
 12 17  2  0
 17 18  1  0
 18 19  2  0
 19  2  1  0
  8  3  1  0
 19 10  1  0
  1 20  1  0
  1 21  1  0
  4 22  1  0
  5 23  1  0
  6 24  1  0
  7 25  1  0
 11 26  1  0
 17 27  1  0
 18 28  1  0
M  END
$$$$
