
     RDKit          3D

 26 28  0  0  0  0  0  0  0  0999 V2000
   -0.0929    2.6658   -0.2694 N   0  0  0  0  0  0  0  0  0  0  0  0
   -0.0681    1.2597   -0.0483 C   0  0  0  0  0  0  0  0  0  0  0  0
   -1.2874    0.5264    0.0130 C   0  0  0  0  0  0  0  0  0  0  0  0
   -2.5798    1.1044   -0.0857 C   0  0  0  0  0  0  0  0  0  0  0  0
   -3.7357    0.3300    0.0136 C   0  0  0  0  0  0  0  0  0  0  0  0
   -3.6249   -1.0369    0.2105 C   0  0  0  0  0  0  0  0  0  0  0  0
   -2.3594   -1.6187    0.2940 C   0  0  0  0  0  0  0  0  0  0  0  0
   -1.1947   -0.8688    0.1908 C   0  0  0  0  0  0  0  0  0  0  0  0
   -0.0282   -1.5230    0.2576 N   0  0  0  0  0  0  0  0  0  0  0  0
    1.1160   -0.8342    0.0995 C   0  0  0  0  0  0  0  0  0  0  0  0
    2.3089   -1.5538    0.1100 C   0  0  0  0  0  0  0  0  0  0  0  0
    2.2670   -2.9169    0.2948 O   0  0  0  0  0  0  0  0  0  0  0  0
    3.5536   -0.9628   -0.0661 C   0  0  0  0  0  0  0  0  0  0  0  0
    3.6195    0.4068   -0.2686 C   0  0  0  0  0  0  0  0  0  0  0  0
    2.4422    1.1599   -0.2786 C   0  0  0  0  0  0  0  0  0  0  0  0
    1.1689    0.5584   -0.0828 C   0  0  0  0  0  0  0  0  0  0  0  0
   -0.9129    3.1157    0.1233 H   0  0  0  0  0  0  0  0  0  0  0  0
    0.7468    3.1345    0.0533 H   0  0  0  0  0  0  0  0  0  0  0  0
   -2.7009    2.1698   -0.2588 H   0  0  0  0  0  0  0  0  0  0  0  0
   -4.7147    0.7952   -0.0674 H   0  0  0  0  0  0  0  0  0  0  0  0
   -4.5147   -1.6557    0.2897 H   0  0  0  0  0  0  0  0  0  0  0  0
   -2.2808   -2.6944    0.4358 H   0  0  0  0  0  0  0  0  0  0  0  0
    1.3087   -3.1097    0.3809 H   0  0  0  0  0  0  0  0  0  0  0  0
    4.4534   -1.5700   -0.0541 H   0  0  0  0  0  0  0  0  0  0  0  0
    4.5805    0.8906   -0.4226 H   0  0  0  0  0  0  0  0  0  0  0  0
    2.5296    2.2279   -0.4579 H   0  0  0  0  0  0  0  0  0  0  0  0
  1  2  1  0
  2  3  2  0
  3  4  1  0
  4  5  2  0
  5  6  1  0
  6  7  2  0
  7  8  1  0
  8  9  2  0
  9 10  1  0
 10 11  2  0
 11 12  1  0
 11 13  1  0
 13 14  2  0
 14 15  1  0
 15 16  2  0
 16  2  1  0
  8  3  1  0
 16 10  1  0
  1 17  1  0
  1 18  1  0
  4 19  1  0
  5 20  1  0
  6 21  1  0
  7 22  1  0
 12 23  1  0
 13 24  1  0
 14 25  1  0
 15 26  1  0
M  END
$$$$
