
     RDKit          3D

 29 31  0  0  0  0  0  0  0  0999 V2000
   -2.0261   -1.7375   -2.2252 O   0  0  0  0  0  0  0  0  0  0  0  0
   -1.4026   -1.0884   -1.3924 C   0  0  0  0  0  0  0  0  0  0  0  0
    0.0609   -0.9675   -1.4454 C   0  0  0  0  0  0  0  0  0  0  0  0
    0.6885   -0.2501   -0.5019 C   0  0  0  0  0  0  0  0  0  0  0  0
    2.1548   -0.0817   -0.5049 C   0  0  0  0  0  0  0  0  0  0  0  0
    2.7162    1.1744   -0.2293 C   0  0  0  0  0  0  0  0  0  0  0  0
    4.1021    1.3520   -0.2193 C   0  0  0  0  0  0  0  0  0  0  0  0
    4.9451    0.2741   -0.4782 C   0  0  0  0  0  0  0  0  0  0  0  0
    4.4043   -0.9819   -0.7431 C   0  0  0  0  0  0  0  0  0  0  0  0
    3.0181   -1.1600   -0.7538 C   0  0  0  0  0  0  0  0  0  0  0  0
    0.0433    0.4132    0.5312 O   0  0  0  0  0  0  0  0  0  0  0  0
   -1.3236    0.3221    0.6154 C   0  0  0  0  0  0  0  0  0  0  0  0
   -1.9414    0.9925    1.6707 C   0  0  0  0  0  0  0  0  0  0  0  0
   -3.3263    0.9343    1.8027 C   0  0  0  0  0  0  0  0  0  0  0  0
   -3.8907    1.6039    2.8481 O   0  0  0  0  0  0  0  0  0  0  0  0
   -4.1054    0.2175    0.8981 C   0  0  0  0  0  0  0  0  0  0  0  0
   -3.4826   -0.4500   -0.1539 C   0  0  0  0  0  0  0  0  0  0  0  0
   -4.2948   -1.1389   -1.0142 O   0  0  0  0  0  0  0  0  0  0  0  0
   -2.0917   -0.3985   -0.2963 C   0  0  0  0  0  0  0  0  0  0  0  0
    0.5634   -1.4646   -2.2648 H   0  0  0  0  0  0  0  0  0  0  0  0
    2.0762    2.0306   -0.0248 H   0  0  0  0  0  0  0  0  0  0  0  0
    4.5216    2.3323   -0.0078 H   0  0  0  0  0  0  0  0  0  0  0  0
    6.0233    0.4119   -0.4686 H   0  0  0  0  0  0  0  0  0  0  0  0
    5.0615   -1.8260   -0.9366 H   0  0  0  0  0  0  0  0  0  0  0  0
    2.6239   -2.1554   -0.9456 H   0  0  0  0  0  0  0  0  0  0  0  0
   -1.3503    1.5562    2.3870 H   0  0  0  0  0  0  0  0  0  0  0  0
   -4.8541    1.4753    2.8198 H   0  0  0  0  0  0  0  0  0  0  0  0
   -5.1855    0.1671    0.9937 H   0  0  0  0  0  0  0  0  0  0  0  0
   -3.7282   -1.5568   -1.7024 H   0  0  0  0  0  0  0  0  0  0  0  0
  1  2  2  0
  2  3  1  0
  3  4  2  0
  4  5  1  0
  5  6  2  0
  6  7  1  0
  7  8  2  0
  8  9  1  0
  9 10  2  0
  4 11  1  0
 11 12  1  0
 12 13  2  0
 13 14  1  0
 14 15  1  0
 14 16  2  0
 16 17  1  0
 17 18  1  0
 17 19  2  0
 19  2  1  0
 10  5  1  0
 19 12  1  0
  3 20  1  0
  6 21  1  0
  7 22  1  0
  8 23  1  0
  9 24  1  0
 10 25  1  0
 13 26  1  0
 15 27  1  0
 16 28  1  0
 18 29  1  0
M  END
$$$$
