
     RDKit          3D

 65 72  0  0  0  0  0  0  0  0999 V2000
   11.4335   -2.5894   -3.2413 C   0  0  0  0  0  0  0  0  0  0  0  0
   11.5254   -1.5937   -2.2296 O   0  0  0  0  0  0  0  0  0  0  0  0
   10.3487   -1.1538   -1.6903 C   0  0  0  0  0  0  0  0  0  0  0  0
    9.0723   -1.5905   -2.0346 C   0  0  0  0  0  0  0  0  0  0  0  0
    7.9493   -1.0478   -1.3966 C   0  0  0  0  0  0  0  0  0  0  0  0
    8.0756   -0.0625   -0.4057 C   0  0  0  0  0  0  0  0  0  0  0  0
    6.8635    0.4702    0.2294 C   0  0  0  0  0  0  0  0  0  0  0  0
    5.6231    0.1054   -0.0486 N   0  0  0  0  0  0  0  0  0  0  0  0
    4.8060    0.8465    0.7675 C   0  0  0  0  0  0  0  0  0  0  0  0
    3.4085    0.8541    0.8779 C   0  0  0  0  0  0  0  0  0  0  0  0
    2.7881    1.7128    1.8057 C   0  0  0  0  0  0  0  0  0  0  0  0
    1.3218    1.7011    1.9030 C   0  0  0  0  0  0  0  0  0  0  0  0
    0.4974    1.0910    1.0690 N   0  0  0  0  0  0  0  0  0  0  0  0
   -0.7726    1.3300    1.5294 C   0  0  0  0  0  0  0  0  0  0  0  0
   -2.0099    0.9163    1.0170 C   0  0  0  0  0  0  0  0  0  0  0  0
   -3.1954    1.3027    1.6701 C   0  0  0  0  0  0  0  0  0  0  0  0
   -4.4811    0.8676    1.1115 C   0  0  0  0  0  0  0  0  0  0  0  0
   -4.6563   -0.1156    0.2458 N   0  0  0  0  0  0  0  0  0  0  0  0
   -6.0022   -0.1668   -0.0153 C   0  0  0  0  0  0  0  0  0  0  0  0
   -6.7221   -1.0258   -0.8586 C   0  0  0  0  0  0  0  0  0  0  0  0
   -8.1195   -0.8822   -0.9721 C   0  0  0  0  0  0  0  0  0  0  0  0
   -8.8937   -1.7710   -1.8562 C   0  0  0  0  0  0  0  0  0  0  0  0
  -10.0044   -2.4847   -1.3753 C   0  0  0  0  0  0  0  0  0  0  0  0
  -10.7389   -3.3271   -2.2147 C   0  0  0  0  0  0  0  0  0  0  0  0
  -10.3747   -3.4701   -3.5511 C   0  0  0  0  0  0  0  0  0  0  0  0
   -9.2767   -2.7728   -4.0482 C   0  0  0  0  0  0  0  0  0  0  0  0
   -8.5429   -1.9313   -3.2074 C   0  0  0  0  0  0  0  0  0  0  0  0
   -8.7592    0.1290   -0.2288 C   0  0  0  0  0  0  0  0  0  0  0  0
   -8.0579    0.9975    0.6204 C   0  0  0  0  0  0  0  0  0  0  0  0
   -6.6790    0.8112    0.6965 C   0  0  0  0  0  0  0  0  0  0  0  0
   -5.6937    1.4558    1.3980 N   0  0  0  0  0  0  0  0  0  0  0  0
   -3.1136    2.0834    2.8374 C   0  0  0  0  0  0  0  0  0  0  0  0
   -1.8837    2.5022    3.3684 C   0  0  0  0  0  0  0  0  0  0  0  0
   -0.7393    2.1048    2.6785 C   0  0  0  0  0  0  0  0  0  0  0  0
    0.5969    2.3187    2.8989 N   0  0  0  0  0  0  0  0  0  0  0  0
    3.5883    2.5549    2.5997 C   0  0  0  0  0  0  0  0  0  0  0  0
    4.9887    2.5619    2.5029 C   0  0  0  0  0  0  0  0  0  0  0  0
    5.5541    1.6902    1.5737 C   0  0  0  0  0  0  0  0  0  0  0  0
    6.8520    1.4342    1.2137 N   0  0  0  0  0  0  0  0  0  0  0  0
    9.3646    0.3686   -0.0676 C   0  0  0  0  0  0  0  0  0  0  0  0
   10.4870   -0.1742   -0.7056 C   0  0  0  0  0  0  0  0  0  0  0  0
   10.8801   -2.2194   -4.1109 H   0  0  0  0  0  0  0  0  0  0  0  0
   12.4501   -2.8260   -3.5701 H   0  0  0  0  0  0  0  0  0  0  0  0
   10.9874   -3.5097   -2.8497 H   0  0  0  0  0  0  0  0  0  0  0  0
    8.9072   -2.3491   -2.7921 H   0  0  0  0  0  0  0  0  0  0  0  0
    6.9585   -1.4026   -1.6805 H   0  0  0  0  0  0  0  0  0  0  0  0
    2.8204    0.1949    0.2453 H   0  0  0  0  0  0  0  0  0  0  0  0
   -2.0384    0.3051    0.1194 H   0  0  0  0  0  0  0  0  0  0  0  0
   -6.1869   -1.7957   -1.4048 H   0  0  0  0  0  0  0  0  0  0  0  0
  -10.2980   -2.3987   -0.3311 H   0  0  0  0  0  0  0  0  0  0  0  0
  -11.5919   -3.8741   -1.8219 H   0  0  0  0  0  0  0  0  0  0  0  0
  -10.9441   -4.1261   -4.2041 H   0  0  0  0  0  0  0  0  0  0  0  0
   -8.9885   -2.8813   -5.0905 H   0  0  0  0  0  0  0  0  0  0  0  0
   -7.6932   -1.3894   -3.6188 H   0  0  0  0  0  0  0  0  0  0  0  0
   -9.8373    0.2590   -0.3202 H   0  0  0  0  0  0  0  0  0  0  0  0
   -8.5701    1.7724    1.1793 H   0  0  0  0  0  0  0  0  0  0  0  0
   -5.8316    2.2488    2.0040 H   0  0  0  0  0  0  0  0  0  0  0  0
   -4.0133    2.3700    3.3765 H   0  0  0  0  0  0  0  0  0  0  0  0
   -1.8338    3.0988    4.2727 H   0  0  0  0  0  0  0  0  0  0  0  0
    0.9843    2.8329    3.6734 H   0  0  0  0  0  0  0  0  0  0  0  0
    3.1384    3.2421    3.3115 H   0  0  0  0  0  0  0  0  0  0  0  0
    5.5934    3.2184    3.1191 H   0  0  0  0  0  0  0  0  0  0  0  0
    7.6648    1.8809    1.6066 H   0  0  0  0  0  0  0  0  0  0  0  0
    9.5328    1.1272    0.6894 H   0  0  0  0  0  0  0  0  0  0  0  0
   11.4814    0.1712   -0.4317 H   0  0  0  0  0  0  0  0  0  0  0  0
  1  2  1  0
  2  3  1  0
  3  4  1  0
  4  5  2  0
  5  6  1  0
  6  7  1  0
  7  8  2  0
  8  9  1  0
  9 10  2  0
 10 11  1  0
 11 12  1  0
 12 13  2  0
 13 14  1  0
 14 15  2  0
 15 16  1  0
 16 17  1  0
 17 18  2  0
 18 19  1  0
 19 20  2  0
 20 21  1  0
 21 22  1  0
 22 23  2  0
 23 24  1  0
 24 25  2  0
 25 26  1  0
 26 27  2  0
 21 28  2  0
 28 29  1  0
 29 30  2  0
 30 31  1  0
 16 32  2  0
 32 33  1  0
 33 34  2  0
 34 35  1  0
 11 36  2  0
 36 37  1  0
 37 38  2  0
 38 39  1  0
  6 40  2  0
 40 41  1  0
 41  3  2  0
 39  7  1  0
 38  9  1  0
 35 12  1  0
 34 14  1  0
 31 17  1  0
 30 19  1  0
 27 22  1  0
  1 42  1  0
  1 43  1  0
  1 44  1  0
  4 45  1  0
  5 46  1  0
 10 47  1  0
 15 48  1  0
 20 49  1  0
 23 50  1  0
 24 51  1  0
 25 52  1  0
 26 53  1  0
 27 54  1  0
 28 55  1  0
 29 56  1  0
 31 57  1  0
 32 58  1  0
 33 59  1  0
 35 60  1  0
 36 61  1  0
 37 62  1  0
 39 63  1  0
 40 64  1  0
 41 65  1  0
M  END
$$$$
