
     RDKit          3D

 58 63  0  0  0  0  0  0  0  0999 V2000
    5.0589   -2.3389    2.2307 O   0  0  0  0  0  0  0  0  0  0  0  0
    4.9094   -1.4210    1.4309 C   0  0  0  0  0  0  0  0  0  0  0  0
    3.9647   -1.5250    0.3094 C   0  0  0  0  0  0  0  0  0  0  0  0
    3.8438   -0.4901   -0.5340 C   0  0  0  0  0  0  0  0  0  0  0  0
    2.9172   -0.5331   -1.6779 C   0  0  0  0  0  0  0  0  0  0  0  0
    3.3652   -0.1700   -2.9530 C   0  0  0  0  0  0  0  0  0  0  0  0
    2.4921   -0.1877   -4.0397 C   0  0  0  0  0  0  0  0  0  0  0  0
    1.1604   -0.5550   -3.8601 C   0  0  0  0  0  0  0  0  0  0  0  0
    0.3852   -0.5348   -4.9873 O   0  0  0  0  0  0  0  0  0  0  0  0
    0.6677   -0.9163   -2.5957 C   0  0  0  0  0  0  0  0  0  0  0  0
   -0.7404   -1.2839   -2.3595 C   0  0  0  0  0  0  0  0  0  0  0  0
   -1.5377   -0.4655   -1.5318 C   0  0  0  0  0  0  0  0  0  0  0  0
   -2.8970   -0.7402   -1.2900 C   0  0  0  0  0  0  0  0  0  0  0  0
   -3.7237    0.1176   -0.4090 C   0  0  0  0  0  0  0  0  0  0  0  0
   -3.5278    1.4421   -0.3114 C   0  0  0  0  0  0  0  0  0  0  0  0
   -4.3744    2.2273    0.5990 C   0  0  0  0  0  0  0  0  0  0  0  0
   -4.2104    3.4324    0.7458 O   0  0  0  0  0  0  0  0  0  0  0  0
   -5.4219    1.5068    1.3289 C   0  0  0  0  0  0  0  0  0  0  0  0
   -6.2888    2.1620    2.2079 C   0  0  0  0  0  0  0  0  0  0  0  0
   -6.2208    3.5055    2.4584 O   0  0  0  0  0  0  0  0  0  0  0  0
   -7.2777    1.4442    2.8724 C   0  0  0  0  0  0  0  0  0  0  0  0
   -7.3938    0.0741    2.6550 C   0  0  0  0  0  0  0  0  0  0  0  0
   -8.3782   -0.5916    3.3227 O   0  0  0  0  0  0  0  0  0  0  0  0
   -6.5324   -0.5913    1.7866 C   0  0  0  0  0  0  0  0  0  0  0  0
   -5.5414    0.1337    1.1236 C   0  0  0  0  0  0  0  0  0  0  0  0
   -4.7159   -0.5698    0.2838 O   0  0  0  0  0  0  0  0  0  0  0  0
   -3.4535   -1.8809   -1.8862 C   0  0  0  0  0  0  0  0  0  0  0  0
   -2.6838   -2.7103   -2.7042 C   0  0  0  0  0  0  0  0  0  0  0  0
   -1.3430   -2.4139   -2.9331 C   0  0  0  0  0  0  0  0  0  0  0  0
   -0.6717   -3.2801   -3.7516 O   0  0  0  0  0  0  0  0  0  0  0  0
    1.5707   -0.9009   -1.5131 C   0  0  0  0  0  0  0  0  0  0  0  0
    4.5631    0.6888   -0.4352 O   0  0  0  0  0  0  0  0  0  0  0  0
    5.4429    0.8314    0.6096 C   0  0  0  0  0  0  0  0  0  0  0  0
    6.1295    2.0427    0.6951 C   0  0  0  0  0  0  0  0  0  0  0  0
    7.0337    2.2394    1.7367 C   0  0  0  0  0  0  0  0  0  0  0  0
    7.7240    3.4091    1.8654 O   0  0  0  0  0  0  0  0  0  0  0  0
    7.2636    1.2467    2.6849 C   0  0  0  0  0  0  0  0  0  0  0  0
    6.5743    0.0405    2.5953 C   0  0  0  0  0  0  0  0  0  0  0  0
    6.8366   -0.8976    3.5568 O   0  0  0  0  0  0  0  0  0  0  0  0
    5.6608   -0.1675    1.5573 C   0  0  0  0  0  0  0  0  0  0  0  0
    3.4129   -2.4514    0.2174 H   0  0  0  0  0  0  0  0  0  0  0  0
    4.4001    0.1262   -3.1127 H   0  0  0  0  0  0  0  0  0  0  0  0
    2.8469    0.0937   -5.0281 H   0  0  0  0  0  0  0  0  0  0  0  0
   -0.5294   -0.7829   -4.7682 H   0  0  0  0  0  0  0  0  0  0  0  0
   -1.0733    0.4060   -1.0696 H   0  0  0  0  0  0  0  0  0  0  0  0
   -2.7767    1.9966   -0.8631 H   0  0  0  0  0  0  0  0  0  0  0  0
   -5.4812    3.8815    1.9297 H   0  0  0  0  0  0  0  0  0  0  0  0
   -7.9541    1.9506    3.5546 H   0  0  0  0  0  0  0  0  0  0  0  0
   -8.3642   -1.5284    3.0672 H   0  0  0  0  0  0  0  0  0  0  0  0
   -6.6187   -1.6604    1.6191 H   0  0  0  0  0  0  0  0  0  0  0  0
   -4.4990   -2.1383   -1.7259 H   0  0  0  0  0  0  0  0  0  0  0  0
   -3.1309   -3.5907   -3.1610 H   0  0  0  0  0  0  0  0  0  0  0  0
    0.2809   -3.0777   -3.7306 H   0  0  0  0  0  0  0  0  0  0  0  0
    1.2082   -1.1688   -0.5213 H   0  0  0  0  0  0  0  0  0  0  0  0
    5.9503    2.8139   -0.0474 H   0  0  0  0  0  0  0  0  0  0  0  0
    7.4464    4.0255    1.1674 H   0  0  0  0  0  0  0  0  0  0  0  0
    7.9723    1.4128    3.4922 H   0  0  0  0  0  0  0  0  0  0  0  0
    6.2798   -1.6872    3.3778 H   0  0  0  0  0  0  0  0  0  0  0  0
  1  2  2  0
  2  3  1  0
  3  4  2  0
  4  5  1  0
  5  6  1  0
  6  7  2  0
  7  8  1  0
  8  9  1  0
  8 10  2  0
 10 11  1  0
 11 12  1  0
 12 13  2  0
 13 14  1  0
 14 15  2  0
 15 16  1  0
 16 17  2  0
 16 18  1  0
 18 19  2  0
 19 20  1  0
 19 21  1  0
 21 22  2  0
 22 23  1  0
 22 24  1  0
 24 25  2  0
 25 26  1  0
 13 27  1  0
 27 28  2  0
 28 29  1  0
 29 30  1  0
 10 31  1  0
  4 32  1  0
 32 33  1  0
 33 34  2  0
 34 35  1  0
 35 36  1  0
 35 37  2  0
 37 38  1  0
 38 39  1  0
 38 40  2  0
 40  2  1  0
 31  5  2  0
 40 33  1  0
 29 11  2  0
 26 14  1  0
 25 18  1  0
  3 41  1  0
  6 42  1  0
  7 43  1  0
  9 44  1  0
 12 45  1  0
 15 46  1  0
 20 47  1  0
 21 48  1  0
 23 49  1  0
 24 50  1  0
 27 51  1  0
 28 52  1  0
 30 53  1  0
 31 54  1  0
 34 55  1  0
 36 56  1  0
 37 57  1  0
 39 58  1  0
M  END
$$$$
