
     RDKit          3D

 34 36  0  0  0  0  0  0  0  0999 V2000
   -5.8585    0.2915    1.7524 C   0  0  0  0  0  0  0  0  0  0  0  0
   -5.3377   -0.1398    0.5037 O   0  0  0  0  0  0  0  0  0  0  0  0
   -3.9851   -0.0405    0.3150 C   0  0  0  0  0  0  0  0  0  0  0  0
   -3.0776    0.4522    1.2535 C   0  0  0  0  0  0  0  0  0  0  0  0
   -1.7101    0.5099    0.9544 C   0  0  0  0  0  0  0  0  0  0  0  0
   -1.2229    0.0840   -0.2895 C   0  0  0  0  0  0  0  0  0  0  0  0
    0.2234    0.1494   -0.5739 C   0  0  0  0  0  0  0  0  0  0  0  0
    0.6901    0.6099   -1.7438 C   0  0  0  0  0  0  0  0  0  0  0  0
    2.1428    0.6585   -1.9609 C   0  0  0  0  0  0  0  0  0  0  0  0
    2.6225    1.0608   -3.0152 O   0  0  0  0  0  0  0  0  0  0  0  0
    2.9995    0.2019   -0.8610 C   0  0  0  0  0  0  0  0  0  0  0  0
    4.3947    0.2082   -0.9642 C   0  0  0  0  0  0  0  0  0  0  0  0
    5.0574    0.6346   -2.0837 O   0  0  0  0  0  0  0  0  0  0  0  0
    5.1789   -0.2315    0.0997 C   0  0  0  0  0  0  0  0  0  0  0  0
    4.5561   -0.6759    1.2632 C   0  0  0  0  0  0  0  0  0  0  0  0
    5.2813   -1.1154    2.3310 O   0  0  0  0  0  0  0  0  0  0  0  0
    3.1684   -0.6868    1.3769 C   0  0  0  0  0  0  0  0  0  0  0  0
    2.3886   -0.2453    0.3085 C   0  0  0  0  0  0  0  0  0  0  0  0
    1.0263   -0.2759    0.4735 O   0  0  0  0  0  0  0  0  0  0  0  0
   -2.1336   -0.4206   -1.2279 C   0  0  0  0  0  0  0  0  0  0  0  0
   -3.4968   -0.4773   -0.9238 C   0  0  0  0  0  0  0  0  0  0  0  0
   -4.3786   -0.9713   -1.8496 O   0  0  0  0  0  0  0  0  0  0  0  0
   -6.9425    0.1434    1.7322 H   0  0  0  0  0  0  0  0  0  0  0  0
   -5.6720    1.3588    1.9110 H   0  0  0  0  0  0  0  0  0  0  0  0
   -5.4567   -0.3074    2.5763 H   0  0  0  0  0  0  0  0  0  0  0  0
   -3.3975    0.7999    2.2302 H   0  0  0  0  0  0  0  0  0  0  0  0
   -1.0270    0.8998    1.7073 H   0  0  0  0  0  0  0  0  0  0  0  0
    0.0632    0.9652   -2.5511 H   0  0  0  0  0  0  0  0  0  0  0  0
    4.3884    0.9152   -2.7490 H   0  0  0  0  0  0  0  0  0  0  0  0
    6.2600   -0.2198    0.0030 H   0  0  0  0  0  0  0  0  0  0  0  0
    6.2274   -1.0571    2.1140 H   0  0  0  0  0  0  0  0  0  0  0  0
    2.7012   -1.0382    2.2926 H   0  0  0  0  0  0  0  0  0  0  0  0
   -1.7798   -0.7808   -2.1895 H   0  0  0  0  0  0  0  0  0  0  0  0
   -3.8940   -1.2596   -2.6378 H   0  0  0  0  0  0  0  0  0  0  0  0
  1  2  1  0
  2  3  1  0
  3  4  1  0
  4  5  2  0
  5  6  1  0
  6  7  1  0
  7  8  2  0
  8  9  1  0
  9 10  2  0
  9 11  1  0
 11 12  2  0
 12 13  1  0
 12 14  1  0
 14 15  2  0
 15 16  1  0
 15 17  1  0
 17 18  2  0
 18 19  1  0
  6 20  2  0
 20 21  1  0
 21 22  1  0
 21  3  2  0
 19  7  1  0
 18 11  1  0
  1 23  1  0
  1 24  1  0
  1 25  1  0
  4 26  1  0
  5 27  1  0
  8 28  1  0
 13 29  1  0
 14 30  1  0
 16 31  1  0
 17 32  1  0
 20 33  1  0
 22 34  1  0
M  END
$$$$
