
     RDKit          3D

 28 30  0  0  0  0  0  0  0  0999 V2000
    4.4915   -0.0903    0.5825 C   0  0  0  0  0  0  0  0  0  0  0  0
    3.0488    0.3148    0.6325 C   0  0  0  0  0  0  0  0  0  0  0  0
    2.6659    1.5103    1.2310 C   0  0  0  0  0  0  0  0  0  0  0  0
    1.3158    1.8631    1.2797 C   0  0  0  0  0  0  0  0  0  0  0  0
    0.3201    1.0479    0.7600 C   0  0  0  0  0  0  0  0  0  0  0  0
   -0.9421    1.4882    0.8328 N   0  0  0  0  0  0  0  0  0  0  0  0
   -1.9262    0.7599    0.2916 C   0  0  0  0  0  0  0  0  0  0  0  0
   -3.2116    1.2848    0.3306 C   0  0  0  0  0  0  0  0  0  0  0  0
   -4.3024    0.6172   -0.2276 C   0  0  0  0  0  0  0  0  0  0  0  0
   -4.1082   -0.6067   -0.8473 C   0  0  0  0  0  0  0  0  0  0  0  0
   -2.8271   -1.1569   -0.8920 C   0  0  0  0  0  0  0  0  0  0  0  0
   -1.7131   -0.4932   -0.3140 C   0  0  0  0  0  0  0  0  0  0  0  0
   -0.3859   -1.0066   -0.2937 C   0  0  0  0  0  0  0  0  0  0  0  0
   -0.0954   -2.2519   -0.9223 N   0  0  0  0  0  0  0  0  0  0  0  0
    0.6745   -0.1855    0.1830 C   0  0  0  0  0  0  0  0  0  0  0  0
    2.0524   -0.5282    0.1240 C   0  0  0  0  0  0  0  0  0  0  0  0
    5.1452    0.7881    0.5649 H   0  0  0  0  0  0  0  0  0  0  0  0
    4.7403   -0.6974    1.4583 H   0  0  0  0  0  0  0  0  0  0  0  0
    4.7023   -0.6694   -0.3227 H   0  0  0  0  0  0  0  0  0  0  0  0
    3.4073    2.1837    1.6544 H   0  0  0  0  0  0  0  0  0  0  0  0
    1.0314    2.8100    1.7338 H   0  0  0  0  0  0  0  0  0  0  0  0
   -3.3668    2.2516    0.8049 H   0  0  0  0  0  0  0  0  0  0  0  0
   -5.2928    1.0618   -0.1832 H   0  0  0  0  0  0  0  0  0  0  0  0
   -4.9455   -1.1321   -1.2989 H   0  0  0  0  0  0  0  0  0  0  0  0
   -2.7044   -2.1080   -1.4015 H   0  0  0  0  0  0  0  0  0  0  0  0
   -0.8743   -2.9007   -0.8893 H   0  0  0  0  0  0  0  0  0  0  0  0
    0.7387   -2.6946   -0.5520 H   0  0  0  0  0  0  0  0  0  0  0  0
    2.3617   -1.4599   -0.3419 H   0  0  0  0  0  0  0  0  0  0  0  0
  1  2  1  0
  2  3  2  0
  3  4  1  0
  4  5  2  0
  5  6  1  0
  6  7  2  0
  7  8  1  0
  8  9  2  0
  9 10  1  0
 10 11  2  0
 11 12  1  0
 12 13  2  0
 13 14  1  0
 13 15  1  0
 15 16  2  0
 16  2  1  0
 15  5  1  0
 12  7  1  0
  1 17  1  0
  1 18  1  0
  1 19  1  0
  3 20  1  0
  4 21  1  0
  8 22  1  0
  9 23  1  0
 10 24  1  0
 11 25  1  0
 14 26  1  0
 14 27  1  0
 16 28  1  0
M  END
$$$$
