
     RDKit          3D

 23 25  0  0  0  0  0  0  0  0999 V2000
   -0.1859    2.7408   -1.4045 Cl  0  0  0  0  0  0  0  0  0  0  0  0
   -0.0806    1.1887   -0.6091 C   0  0  0  0  0  0  0  0  0  0  0  0
   -1.2731    0.4979   -0.2810 C   0  0  0  0  0  0  0  0  0  0  0  0
   -2.5909    0.9603   -0.5448 C   0  0  0  0  0  0  0  0  0  0  0  0
   -3.7092    0.2099   -0.1848 C   0  0  0  0  0  0  0  0  0  0  0  0
   -3.5339   -1.0127    0.4437 C   0  0  0  0  0  0  0  0  0  0  0  0
   -2.2423   -1.4728    0.7058 C   0  0  0  0  0  0  0  0  0  0  0  0
   -1.1134   -0.7427    0.3563 C   0  0  0  0  0  0  0  0  0  0  0  0
    0.0858   -1.2649    0.6482 N   0  0  0  0  0  0  0  0  0  0  0  0
    1.2044   -0.5984    0.3310 C   0  0  0  0  0  0  0  0  0  0  0  0
    2.4224   -1.1825    0.6549 C   0  0  0  0  0  0  0  0  0  0  0  0
    3.6410   -0.5661    0.3653 C   0  0  0  0  0  0  0  0  0  0  0  0
    3.6496    0.6680   -0.2651 C   0  0  0  0  0  0  0  0  0  0  0  0
    2.4393    1.2734   -0.5997 C   0  0  0  0  0  0  0  0  0  0  0  0
    1.1951    0.6515   -0.3080 C   0  0  0  0  0  0  0  0  0  0  0  0
   -2.7570    1.9163   -1.0369 H   0  0  0  0  0  0  0  0  0  0  0  0
   -4.7087    0.5815   -0.3955 H   0  0  0  0  0  0  0  0  0  0  0  0
   -4.3936   -1.6118    0.7319 H   0  0  0  0  0  0  0  0  0  0  0  0
   -2.1116   -2.4337    1.1996 H   0  0  0  0  0  0  0  0  0  0  0  0
    2.4227   -2.1515    1.1500 H   0  0  0  0  0  0  0  0  0  0  0  0
    4.5744   -1.0536    0.6340 H   0  0  0  0  0  0  0  0  0  0  0  0
    4.5906    1.1603   -0.4970 H   0  0  0  0  0  0  0  0  0  0  0  0
    2.4749    2.2420   -1.0940 H   0  0  0  0  0  0  0  0  0  0  0  0
  1  2  1  0
  2  3  2  0
  3  4  1  0
  4  5  2  0
  5  6  1  0
  6  7  2  0
  7  8  1  0
  8  9  2  0
  9 10  1  0
 10 11  2  0
 11 12  1  0
 12 13  2  0
 13 14  1  0
 14 15  2  0
 15  2  1  0
  8  3  1  0
 15 10  1  0
  4 16  1  0
  5 17  1  0
  6 18  1  0
  7 19  1  0
 11 20  1  0
 12 21  1  0
 13 22  1  0
 14 23  1  0
M  END
$$$$
