
     RDKit          3D

 33 35  0  0  0  0  0  0  0  0999 V2000
   -4.8487    2.0903    1.7239 O   0  0  0  0  0  0  0  0  0  0  0  0
   -4.1023    1.1527    1.0740 C   0  0  0  0  0  0  0  0  0  0  0  0
   -4.6973    0.0602    0.4486 C   0  0  0  0  0  0  0  0  0  0  0  0
   -3.8912   -0.8703   -0.2029 C   0  0  0  0  0  0  0  0  0  0  0  0
   -4.5275   -1.9239   -0.8013 O   0  0  0  0  0  0  0  0  0  0  0  0
   -2.5026   -0.7046   -0.2252 C   0  0  0  0  0  0  0  0  0  0  0  0
   -1.9191    0.3916    0.4031 C   0  0  0  0  0  0  0  0  0  0  0  0
   -2.7209    1.3263    1.0570 C   0  0  0  0  0  0  0  0  0  0  0  0
   -0.5656    0.6128    0.4151 O   0  0  0  0  0  0  0  0  0  0  0  0
    0.2719   -0.3007   -0.2150 C   0  0  0  0  0  0  0  0  0  0  0  0
    1.7016    0.0728   -0.1250 C   0  0  0  0  0  0  0  0  0  0  0  0
    2.0851    1.4093   -0.3507 C   0  0  0  0  0  0  0  0  0  0  0  0
    3.4242    1.7907   -0.2476 C   0  0  0  0  0  0  0  0  0  0  0  0
    3.7963    3.0863   -0.4697 O   0  0  0  0  0  0  0  0  0  0  0  0
    4.3890    0.8474    0.0842 C   0  0  0  0  0  0  0  0  0  0  0  0
    5.7072    1.1977    0.1902 O   0  0  0  0  0  0  0  0  0  0  0  0
    4.0192   -0.4754    0.3152 C   0  0  0  0  0  0  0  0  0  0  0  0
    5.0086   -1.3655    0.6387 O   0  0  0  0  0  0  0  0  0  0  0  0
    2.6868   -0.8682    0.2201 C   0  0  0  0  0  0  0  0  0  0  0  0
   -0.1664   -1.3976   -0.8605 C   0  0  0  0  0  0  0  0  0  0  0  0
    0.6537   -2.2998   -1.5128 O   0  0  0  0  0  0  0  0  0  0  0  0
   -1.6234   -1.6606   -0.8999 C   0  0  0  0  0  0  0  0  0  0  0  0
   -2.0628   -2.6495   -1.4827 O   0  0  0  0  0  0  0  0  0  0  0  0
   -5.7878    1.8455    1.6622 H   0  0  0  0  0  0  0  0  0  0  0  0
   -5.7735   -0.0819    0.4572 H   0  0  0  0  0  0  0  0  0  0  0  0
   -3.8514   -2.4986   -1.2246 H   0  0  0  0  0  0  0  0  0  0  0  0
   -2.2760    2.1852    1.5522 H   0  0  0  0  0  0  0  0  0  0  0  0
    1.3312    2.1473   -0.6118 H   0  0  0  0  0  0  0  0  0  0  0  0
    3.0131    3.6141   -0.6861 H   0  0  0  0  0  0  0  0  0  0  0  0
    6.1659    0.3699    0.4293 H   0  0  0  0  0  0  0  0  0  0  0  0
    4.6084   -2.2485    0.7198 H   0  0  0  0  0  0  0  0  0  0  0  0
    2.4071   -1.8996    0.4137 H   0  0  0  0  0  0  0  0  0  0  0  0
    0.0471   -2.9555   -1.9181 H   0  0  0  0  0  0  0  0  0  0  0  0
  1  2  1  0
  2  3  2  0
  3  4  1  0
  4  5  1  0
  4  6  2  0
  6  7  1  0
  7  8  2  0
  7  9  1  0
  9 10  1  0
 10 11  1  0
 11 12  1  0
 12 13  2  0
 13 14  1  0
 13 15  1  0
 15 16  1  0
 15 17  2  0
 17 18  1  0
 17 19  1  0
 10 20  2  0
 20 21  1  0
 20 22  1  0
 22 23  2  0
  8  2  1  0
 19 11  2  0
 22  6  1  0
  1 24  1  0
  3 25  1  0
  5 26  1  0
  8 27  1  0
 12 28  1  0
 14 29  1  0
 16 30  1  0
 18 31  1  0
 19 32  1  0
 21 33  1  0
M  END
$$$$
