
     RDKit          3D

 27 29  0  0  0  0  0  0  0  0999 V2000
   -5.0971    1.0741    0.3802 N   0  0  0  0  0  0  0  0  0  0  0  0
   -3.8557    0.4221    0.3227 C   0  0  0  0  0  0  0  0  0  0  0  0
   -3.7173   -0.8619    0.8659 C   0  0  0  0  0  0  0  0  0  0  0  0
   -2.4767   -1.5120    0.9353 C   0  0  0  0  0  0  0  0  0  0  0  0
   -1.3742   -0.7951    0.4729 C   0  0  0  0  0  0  0  0  0  0  0  0
   -0.0393   -1.0945    0.3947 N   0  0  0  0  0  0  0  0  0  0  0  0
    0.6342   -0.0128   -0.1299 C   0  0  0  0  0  0  0  0  0  0  0  0
    2.0844    0.0363   -0.3572 C   0  0  0  0  0  0  0  0  0  0  0  0
    2.6719    1.2494   -0.7494 C   0  0  0  0  0  0  0  0  0  0  0  0
    4.0472    1.3459   -0.9755 C   0  0  0  0  0  0  0  0  0  0  0  0
    4.8579    0.2262   -0.8145 C   0  0  0  0  0  0  0  0  0  0  0  0
    4.2934   -0.9877   -0.4300 C   0  0  0  0  0  0  0  0  0  0  0  0
    2.9158   -1.0836   -0.2033 C   0  0  0  0  0  0  0  0  0  0  0  0
   -0.2210    0.9653   -0.3792 N   0  0  0  0  0  0  0  0  0  0  0  0
   -1.4607    0.4982   -0.0190 C   0  0  0  0  0  0  0  0  0  0  0  0
   -2.7123    1.1300   -0.0742 C   0  0  0  0  0  0  0  0  0  0  0  0
   -5.8930    0.4452    0.3492 H   0  0  0  0  0  0  0  0  0  0  0  0
   -5.1836    1.8401   -0.2812 H   0  0  0  0  0  0  0  0  0  0  0  0
   -4.5944   -1.3799    1.2484 H   0  0  0  0  0  0  0  0  0  0  0  0
   -2.3878   -2.5121    1.3438 H   0  0  0  0  0  0  0  0  0  0  0  0
    0.3811   -1.9608    0.6903 H   0  0  0  0  0  0  0  0  0  0  0  0
    2.0497    2.1341   -0.8802 H   0  0  0  0  0  0  0  0  0  0  0  0
    4.4797    2.2961   -1.2775 H   0  0  0  0  0  0  0  0  0  0  0  0
    5.9278    0.2995   -0.9910 H   0  0  0  0  0  0  0  0  0  0  0  0
    4.9262   -1.8634   -0.3086 H   0  0  0  0  0  0  0  0  0  0  0  0
    2.5170   -2.0506    0.0856 H   0  0  0  0  0  0  0  0  0  0  0  0
   -2.7731    2.1519   -0.4290 H   0  0  0  0  0  0  0  0  0  0  0  0
  1  2  1  0
  2  3  2  0
  3  4  1  0
  4  5  2  0
  5  6  1  0
  6  7  1  0
  7  8  1  0
  8  9  2  0
  9 10  1  0
 10 11  2  0
 11 12  1  0
 12 13  2  0
  7 14  2  0
 14 15  1  0
 15 16  2  0
 16  2  1  0
 15  5  1  0
 13  8  1  0
  1 17  1  0
  1 18  1  0
  3 19  1  0
  4 20  1  0
  6 21  1  0
  9 22  1  0
 10 23  1  0
 11 24  1  0
 12 25  1  0
 13 26  1  0
 16 27  1  0
M  END
$$$$
