
     RDKit          3D

 38 42  0  0  0  0  0  0  0  0999 V2000
   -0.4126    2.3598   -2.5126 C   0  0  0  0  0  0  0  0  0  0  0  0
    0.8676    1.9066   -2.1932 C   0  0  0  0  0  0  0  0  0  0  0  0
    1.0659    0.9675   -1.1729 C   0  0  0  0  0  0  0  0  0  0  0  0
    2.4299    0.5169   -0.8687 C   0  0  0  0  0  0  0  0  0  0  0  0
    3.5308    0.9212   -1.4812 N   0  0  0  0  0  0  0  0  0  0  0  0
    4.5713    0.2530   -0.8865 C   0  0  0  0  0  0  0  0  0  0  0  0
    5.9466    0.3113   -1.1525 C   0  0  0  0  0  0  0  0  0  0  0  0
    6.8118   -0.4843   -0.3901 C   0  0  0  0  0  0  0  0  0  0  0  0
    6.3167   -1.3193    0.6151 C   0  0  0  0  0  0  0  0  0  0  0  0
    4.9464   -1.3897    0.8938 C   0  0  0  0  0  0  0  0  0  0  0  0
    4.1094   -0.5856    0.1177 C   0  0  0  0  0  0  0  0  0  0  0  0
    2.7514   -0.4002    0.1089 N   0  0  0  0  0  0  0  0  0  0  0  0
   -0.0594    0.4950   -0.4806 C   0  0  0  0  0  0  0  0  0  0  0  0
   -1.3597    0.9393   -0.7871 C   0  0  0  0  0  0  0  0  0  0  0  0
   -2.4878    0.3979   -0.0175 C   0  0  0  0  0  0  0  0  0  0  0  0
   -2.3946   -0.4891    0.9601 N   0  0  0  0  0  0  0  0  0  0  0  0
   -3.6749   -0.7152    1.3997 C   0  0  0  0  0  0  0  0  0  0  0  0
   -4.1409   -1.5626    2.4146 C   0  0  0  0  0  0  0  0  0  0  0  0
   -5.5177   -1.6104    2.6690 C   0  0  0  0  0  0  0  0  0  0  0  0
   -6.4097   -0.8307    1.9280 C   0  0  0  0  0  0  0  0  0  0  0  0
   -5.9614    0.0207    0.9112 C   0  0  0  0  0  0  0  0  0  0  0  0
   -4.5845    0.0470    0.6808 C   0  0  0  0  0  0  0  0  0  0  0  0
   -3.8079    0.7422   -0.2094 N   0  0  0  0  0  0  0  0  0  0  0  0
   -1.5209    1.8789   -1.8134 C   0  0  0  0  0  0  0  0  0  0  0  0
   -0.5415    3.0892   -3.3087 H   0  0  0  0  0  0  0  0  0  0  0  0
    1.7228    2.2913   -2.7480 H   0  0  0  0  0  0  0  0  0  0  0  0
    6.3223    0.9617   -1.9340 H   0  0  0  0  0  0  0  0  0  0  0  0
    7.8809   -0.4492   -0.5853 H   0  0  0  0  0  0  0  0  0  0  0  0
    7.0099   -1.9273    1.1932 H   0  0  0  0  0  0  0  0  0  0  0  0
    4.5624   -2.0377    1.6738 H   0  0  0  0  0  0  0  0  0  0  0  0
    2.0966   -0.8619    0.7204 H   0  0  0  0  0  0  0  0  0  0  0  0
    0.0488   -0.2345    0.3186 H   0  0  0  0  0  0  0  0  0  0  0  0
   -3.4431   -2.1646    2.9854 H   0  0  0  0  0  0  0  0  0  0  0  0
   -5.8938   -2.2631    3.4533 H   0  0  0  0  0  0  0  0  0  0  0  0
   -7.4746   -0.8865    2.1458 H   0  0  0  0  0  0  0  0  0  0  0  0
   -6.6546    0.6252    0.3369 H   0  0  0  0  0  0  0  0  0  0  0  0
   -4.1525    1.3980   -0.8920 H   0  0  0  0  0  0  0  0  0  0  0  0
   -2.4991    2.2568   -2.0927 H   0  0  0  0  0  0  0  0  0  0  0  0
  1  2  2  0
  2  3  1  0
  3  4  1  0
  4  5  2  0
  5  6  1  0
  6  7  2  0
  7  8  1  0
  8  9  2  0
  9 10  1  0
 10 11  2  0
 11 12  1  0
  3 13  2  0
 13 14  1  0
 14 15  1  0
 15 16  2  0
 16 17  1  0
 17 18  2  0
 18 19  1  0
 19 20  2  0
 20 21  1  0
 21 22  2  0
 22 23  1  0
 14 24  2  0
 24  1  1  0
 12  4  1  0
 23 15  1  0
 11  6  1  0
 22 17  1  0
  1 25  1  0
  2 26  1  0
  7 27  1  0
  8 28  1  0
  9 29  1  0
 10 30  1  0
 12 31  1  0
 13 32  1  0
 18 33  1  0
 19 34  1  0
 20 35  1  0
 21 36  1  0
 23 37  1  0
 24 38  1  0
M  END
$$$$
