
     RDKit          3D

 36 37  0  0  0  0  0  0  0  0999 V2000
    3.7503   -1.3952    0.5680 C   0  0  0  0  0  0  0  0  0  0  0  0
    2.4909   -0.6151    0.2853 C   0  0  0  0  0  0  0  0  0  0  0  0
    1.2322   -1.2523    0.2568 C   0  0  0  0  0  0  0  0  0  0  0  0
    1.1174   -2.7405    0.4864 C   0  0  0  0  0  0  0  0  0  0  0  0
    0.0806   -0.4926   -0.0322 C   0  0  0  0  0  0  0  0  0  0  0  0
    0.1615    0.8879   -0.2874 C   0  0  0  0  0  0  0  0  0  0  0  0
    1.4126    1.5431   -0.1977 C   0  0  0  0  0  0  0  0  0  0  0  0
    2.5505    0.7771    0.1083 C   0  0  0  0  0  0  0  0  0  0  0  0
    3.7776    1.3707    0.2508 O   0  0  0  0  0  0  0  0  0  0  0  0
    1.5054    3.0231   -0.4730 C   0  0  0  0  0  0  0  0  0  0  0  0
   -1.0893    1.6623   -0.6165 C   0  0  0  0  0  0  0  0  0  0  0  0
   -2.2270    0.7449   -1.0265 C   0  0  0  0  0  0  0  0  0  0  0  0
   -2.3265   -0.4499   -0.0812 C   0  0  0  0  0  0  0  0  0  0  0  0
   -2.6995   -0.0784    1.3599 C   0  0  0  0  0  0  0  0  0  0  0  0
   -3.4043   -1.4049   -0.6170 C   0  0  0  0  0  0  0  0  0  0  0  0
   -3.2693   -2.5675   -0.9654 O   0  0  0  0  0  0  0  0  0  0  0  0
   -4.6326   -0.8404   -0.6873 O   0  0  0  0  0  0  0  0  0  0  0  0
   -1.0997   -1.1909   -0.0698 O   0  0  0  0  0  0  0  0  0  0  0  0
    3.7345   -2.3650    0.0601 H   0  0  0  0  0  0  0  0  0  0  0  0
    3.8579   -1.5526    1.6456 H   0  0  0  0  0  0  0  0  0  0  0  0
    4.6448   -0.8824    0.2003 H   0  0  0  0  0  0  0  0  0  0  0  0
    0.1166   -3.0351    0.8170 H   0  0  0  0  0  0  0  0  0  0  0  0
    1.7982   -3.0700    1.2780 H   0  0  0  0  0  0  0  0  0  0  0  0
    1.3505   -3.2780   -0.4380 H   0  0  0  0  0  0  0  0  0  0  0  0
    3.6483    2.2084    0.7231 H   0  0  0  0  0  0  0  0  0  0  0  0
    0.8753    3.5778    0.2298 H   0  0  0  0  0  0  0  0  0  0  0  0
    1.1847    3.2361   -1.4981 H   0  0  0  0  0  0  0  0  0  0  0  0
    2.5193    3.4199   -0.3812 H   0  0  0  0  0  0  0  0  0  0  0  0
   -1.3793    2.2528    0.2607 H   0  0  0  0  0  0  0  0  0  0  0  0
   -0.9094    2.3592   -1.4422 H   0  0  0  0  0  0  0  0  0  0  0  0
   -3.1639    1.3132   -1.0671 H   0  0  0  0  0  0  0  0  0  0  0  0
   -2.0345    0.3828   -2.0464 H   0  0  0  0  0  0  0  0  0  0  0  0
   -3.6167    0.5187    1.3998 H   0  0  0  0  0  0  0  0  0  0  0  0
   -1.9033    0.4815    1.8609 H   0  0  0  0  0  0  0  0  0  0  0  0
   -2.8611   -0.9822    1.9598 H   0  0  0  0  0  0  0  0  0  0  0  0
   -5.1928   -1.5663   -1.0367 H   0  0  0  0  0  0  0  0  0  0  0  0
  1  2  1  0
  2  3  1  0
  3  4  1  0
  3  5  2  0
  5  6  1  0
  6  7  2  0
  7  8  1  0
  8  9  1  0
  7 10  1  0
  6 11  1  0
 11 12  1  0
 12 13  1  0
 13 14  1  0
 13 15  1  0
 15 16  2  0
 15 17  1  0
 13 18  1  0
  8  2  2  0
 18  5  1  0
  1 19  1  0
  1 20  1  0
  1 21  1  0
  4 22  1  0
  4 23  1  0
  4 24  1  0
  9 25  1  0
 10 26  1  0
 10 27  1  0
 10 28  1  0
 11 29  1  0
 11 30  1  0
 12 31  1  0
 12 32  1  0
 14 33  1  0
 14 34  1  0
 14 35  1  0
 17 36  1  0
M  END
$$$$
