
     RDKit          3D

 16 15  0  0  0  0  0  0  0  0999 V2000
    3.1696   -0.5290    0.2009 N   0  0  0  0  0  0  0  0  0  0  0  0
    2.1308    0.4797   -0.0182 C   0  0  0  0  0  0  0  0  0  0  0  0
    0.7313   -0.1366   -0.0644 C   0  0  0  0  0  0  0  0  0  0  0  0
   -0.5292    1.1378   -0.3404 S   0  0  0  0  0  0  0  0  0  0  0  0
   -2.2840    0.0521   -0.2831 P   0  0  0  0  0  0  0  0  0  0  0  0
   -2.2637   -1.1394   -1.1811 O   0  0  0  0  0  0  0  0  0  0  0  0
   -2.6326   -0.3466    1.2283 O   0  0  0  0  0  0  0  0  0  0  0  0
   -3.5096    1.0409   -0.5785 O   0  0  0  0  0  0  0  0  0  0  0  0
    2.9877   -1.0334    1.0679 H   0  0  0  0  0  0  0  0  0  0  0  0
    3.1399   -1.2236   -0.5453 H   0  0  0  0  0  0  0  0  0  0  0  0
    2.3520    0.9995   -0.9574 H   0  0  0  0  0  0  0  0  0  0  0  0
    2.1969    1.2187    0.7884 H   0  0  0  0  0  0  0  0  0  0  0  0
    0.6647   -0.8729   -0.8723 H   0  0  0  0  0  0  0  0  0  0  0  0
    0.5074   -0.6481    0.8777 H   0  0  0  0  0  0  0  0  0  0  0  0
   -3.3821   -0.9715    1.2403 H   0  0  0  0  0  0  0  0  0  0  0  0
   -3.2789    1.9726   -0.4084 H   0  0  0  0  0  0  0  0  0  0  0  0
  1  2  1  0
  2  3  1  0
  3  4  1  0
  4  5  1  0
  5  6  2  0
  5  7  1  0
  5  8  1  0
  1  9  1  0
  1 10  1  0
  2 11  1  0
  2 12  1  0
  3 13  1  0
  3 14  1  0
  7 15  1  0
  8 16  1  0
M  END
$$$$
