
     RDKit          3D

 19 18  0  0  0  0  0  0  0  0999 V2000
    2.4368   -0.8834    0.5953 N   0  0  0  0  0  0  0  0  0  0  0  0
    1.7008   -0.4595   -0.5929 C   0  0  0  0  0  0  0  0  0  0  0  0
    1.2605    1.0136   -0.5738 C   0  0  0  0  0  0  0  0  0  0  0  0
    0.3749    1.5944    0.9208 S   0  0  0  0  0  0  0  0  0  0  0  0
   -0.9435    0.3409    1.0668 C   0  0  0  0  0  0  0  0  0  0  0  0
   -1.9231    0.3578   -0.1118 C   0  0  0  0  0  0  0  0  0  0  0  0
   -3.0126   -0.6068    0.0619 N   0  0  0  0  0  0  0  0  0  0  0  0
    3.1632   -0.2037    0.8184 H   0  0  0  0  0  0  0  0  0  0  0  0
    2.9049   -1.7703    0.4171 H   0  0  0  0  0  0  0  0  0  0  0  0
    2.3376   -0.6123   -1.4721 H   0  0  0  0  0  0  0  0  0  0  0  0
    0.8322   -1.1132   -0.7228 H   0  0  0  0  0  0  0  0  0  0  0  0
    2.1497    1.6482   -0.6648 H   0  0  0  0  0  0  0  0  0  0  0  0
    0.6402    1.2254   -1.4509 H   0  0  0  0  0  0  0  0  0  0  0  0
   -0.4980   -0.6499    1.1993 H   0  0  0  0  0  0  0  0  0  0  0  0
   -1.4861    0.5649    1.9924 H   0  0  0  0  0  0  0  0  0  0  0  0
   -1.4108    0.1143   -1.0475 H   0  0  0  0  0  0  0  0  0  0  0  0
   -2.3625    1.3547   -0.2290 H   0  0  0  0  0  0  0  0  0  0  0  0
   -2.6265   -1.5378    0.2176 H   0  0  0  0  0  0  0  0  0  0  0  0
   -3.5377   -0.3773    0.9060 H   0  0  0  0  0  0  0  0  0  0  0  0
  1  2  1  0
  2  3  1  0
  3  4  1  0
  4  5  1  0
  5  6  1  0
  6  7  1  0
  1  8  1  0
  1  9  1  0
  2 10  1  0
  2 11  1  0
  3 12  1  0
  3 13  1  0
  5 14  1  0
  5 15  1  0
  6 16  1  0
  6 17  1  0
  7 18  1  0
  7 19  1  0
M  END
$$$$
