
     RDKit          3D

 51 54  0  0  0  0  0  0  0  0999 V2000
    0.4398    0.6520    2.7829 O   0  0  0  0  0  0  0  0  0  0  0  0
    0.5281   -0.2022    1.9040 C   0  0  0  0  0  0  0  0  0  0  0  0
    1.6107   -0.3981    1.0604 O   0  0  0  0  0  0  0  0  0  0  0  0
    2.4991    0.6809    0.9862 C   0  0  0  0  0  0  0  0  0  0  0  0
    2.5300    1.3854   -0.2297 C   0  0  0  0  0  0  0  0  0  0  0  0
    3.3945    2.4610   -0.3527 C   0  0  0  0  0  0  0  0  0  0  0  0
    3.4761    3.1830   -1.4985 O   0  0  0  0  0  0  0  0  0  0  0  0
    4.2253    2.8136    0.7090 C   0  0  0  0  0  0  0  0  0  0  0  0
    5.0814    3.8737    0.5952 O   0  0  0  0  0  0  0  0  0  0  0  0
    4.2076    2.0832    1.8956 C   0  0  0  0  0  0  0  0  0  0  0  0
    5.0420    2.4304    2.9205 O   0  0  0  0  0  0  0  0  0  0  0  0
    3.3471    1.0039    2.0476 C   0  0  0  0  0  0  0  0  0  0  0  0
   -0.6167   -1.1302    1.5627 C   0  0  0  0  0  0  0  0  0  0  0  0
   -0.2629   -2.2628    0.6081 C   0  0  0  0  0  0  0  0  0  0  0  0
   -1.5077   -3.0143    0.2393 C   0  0  0  0  0  0  0  0  0  0  0  0
   -1.4415   -4.3394   -0.2150 C   0  0  0  0  0  0  0  0  0  0  0  0
   -0.2159   -4.9430   -0.3055 O   0  0  0  0  0  0  0  0  0  0  0  0
   -2.5927   -5.0376   -0.5738 C   0  0  0  0  0  0  0  0  0  0  0  0
   -3.8241   -4.4015   -0.4847 C   0  0  0  0  0  0  0  0  0  0  0  0
   -4.9325   -5.1159   -0.8281 O   0  0  0  0  0  0  0  0  0  0  0  0
   -3.9155   -3.0772   -0.0645 C   0  0  0  0  0  0  0  0  0  0  0  0
   -2.7557   -2.3825    0.2877 C   0  0  0  0  0  0  0  0  0  0  0  0
   -2.9477   -1.0789    0.6531 O   0  0  0  0  0  0  0  0  0  0  0  0
   -1.8006   -0.3009    1.0348 C   0  0  0  0  0  0  0  0  0  0  0  0
   -1.4527    0.7043   -0.0654 C   0  0  0  0  0  0  0  0  0  0  0  0
   -1.2981    0.3210   -1.4122 C   0  0  0  0  0  0  0  0  0  0  0  0
   -0.8680    1.2518   -2.3607 C   0  0  0  0  0  0  0  0  0  0  0  0
   -0.6976    0.8565   -3.6570 O   0  0  0  0  0  0  0  0  0  0  0  0
   -0.6064    2.5630   -1.9949 C   0  0  0  0  0  0  0  0  0  0  0  0
   -0.1594    3.4486   -2.9368 O   0  0  0  0  0  0  0  0  0  0  0  0
   -0.7997    2.9661   -0.6804 C   0  0  0  0  0  0  0  0  0  0  0  0
   -0.5552    4.2657   -0.3601 O   0  0  0  0  0  0  0  0  0  0  0  0
   -1.2185    2.0534    0.2844 C   0  0  0  0  0  0  0  0  0  0  0  0
    1.8811    1.0812   -1.0446 H   0  0  0  0  0  0  0  0  0  0  0  0
    2.8652    2.7829   -2.1447 H   0  0  0  0  0  0  0  0  0  0  0  0
    4.9060    4.2226   -0.3059 H   0  0  0  0  0  0  0  0  0  0  0  0
    5.5168    3.2166    2.5910 H   0  0  0  0  0  0  0  0  0  0  0  0
    3.3326    0.4406    2.9749 H   0  0  0  0  0  0  0  0  0  0  0  0
   -0.9231   -1.6027    2.5114 H   0  0  0  0  0  0  0  0  0  0  0  0
    0.2116   -1.8991   -0.3132 H   0  0  0  0  0  0  0  0  0  0  0  0
    0.4595   -2.9280    1.1042 H   0  0  0  0  0  0  0  0  0  0  0  0
   -0.3366   -5.8250   -0.6933 H   0  0  0  0  0  0  0  0  0  0  0  0
   -2.5513   -6.0659   -0.9168 H   0  0  0  0  0  0  0  0  0  0  0  0
   -5.7230   -4.6037   -0.5753 H   0  0  0  0  0  0  0  0  0  0  0  0
   -4.8723   -2.5701   -0.0187 H   0  0  0  0  0  0  0  0  0  0  0  0
   -2.1708    0.2911    1.8863 H   0  0  0  0  0  0  0  0  0  0  0  0
   -1.4980   -0.6988   -1.7312 H   0  0  0  0  0  0  0  0  0  0  0  0
   -0.4880    1.6803   -4.1482 H   0  0  0  0  0  0  0  0  0  0  0  0
   -0.0295    4.2828   -2.4203 H   0  0  0  0  0  0  0  0  0  0  0  0
   -1.1623    4.5111    0.3729 H   0  0  0  0  0  0  0  0  0  0  0  0
   -1.3306    2.3714    1.3195 H   0  0  0  0  0  0  0  0  0  0  0  0
  1  2  2  0
  2  3  1  0
  3  4  1  0
  4  5  2  0
  5  6  1  0
  6  7  1  0
  6  8  2  0
  8  9  1  0
  8 10  1  0
 10 11  1  0
 10 12  2  0
  2 13  1  0
 13 14  1  0
 14 15  1  0
 15 16  2  0
 16 17  1  0
 16 18  1  0
 18 19  2  0
 19 20  1  0
 19 21  1  0
 21 22  2  0
 22 23  1  0
 23 24  1  0
 24 25  1  0
 25 26  1  0
 26 27  2  0
 27 28  1  0
 27 29  1  0
 29 30  1  0
 29 31  2  0
 31 32  1  0
 31 33  1  0
 12  4  1  0
 24 13  1  0
 33 25  2  0
 22 15  1  0
  5 34  1  0
  7 35  1  0
  9 36  1  0
 11 37  1  0
 12 38  1  0
 13 39  1  0
 14 40  1  0
 14 41  1  0
 17 42  1  0
 18 43  1  0
 20 44  1  0
 21 45  1  0
 24 46  1  0
 26 47  1  0
 28 48  1  0
 30 49  1  0
 32 50  1  0
 33 51  1  0
M  END
$$$$
