
     RDKit          3D

 55 60  0  0  0  0  0  0  0  0999 V2000
   10.8936   -0.1001   -0.4919 C   0  0  0  0  0  0  0  0  0  0  0  0
    9.4149   -0.0143   -0.7358 C   0  0  0  0  0  0  0  0  0  0  0  0
    8.9235    0.1730   -2.0369 C   0  0  0  0  0  0  0  0  0  0  0  0
    7.5495    0.2273   -2.3061 C   0  0  0  0  0  0  0  0  0  0  0  0
    6.6930    0.0742   -1.2155 C   0  0  0  0  0  0  0  0  0  0  0  0
    5.3271    0.0702   -1.1042 N   0  0  0  0  0  0  0  0  0  0  0  0
    4.9845   -0.1276    0.2162 C   0  0  0  0  0  0  0  0  0  0  0  0
    6.0803   -0.2498    0.9474 N   0  0  0  0  0  0  0  0  0  0  0  0
    7.1384   -0.1265    0.0822 C   0  0  0  0  0  0  0  0  0  0  0  0
    8.5172   -0.1786    0.3343 C   0  0  0  0  0  0  0  0  0  0  0  0
    3.6056   -0.1921    0.7202 C   0  0  0  0  0  0  0  0  0  0  0  0
    3.3951   -0.4110    2.0945 C   0  0  0  0  0  0  0  0  0  0  0  0
    2.1135   -0.4864    2.6584 C   0  0  0  0  0  0  0  0  0  0  0  0
    1.0438   -0.3317    1.7803 C   0  0  0  0  0  0  0  0  0  0  0  0
   -0.3145   -0.3444    1.9625 N   0  0  0  0  0  0  0  0  0  0  0  0
   -0.9323   -0.1402    0.7476 C   0  0  0  0  0  0  0  0  0  0  0  0
   -0.0175    0.0001   -0.1984 N   0  0  0  0  0  0  0  0  0  0  0  0
    1.2007   -0.1146    0.4213 C   0  0  0  0  0  0  0  0  0  0  0  0
    2.4918   -0.0422   -0.1253 C   0  0  0  0  0  0  0  0  0  0  0  0
   -2.3861   -0.0898    0.5493 C   0  0  0  0  0  0  0  0  0  0  0  0
   -3.3039   -0.2312    1.5928 C   0  0  0  0  0  0  0  0  0  0  0  0
   -4.6862   -0.1738    1.3468 C   0  0  0  0  0  0  0  0  0  0  0  0
   -5.2130    0.0272    0.0615 C   0  0  0  0  0  0  0  0  0  0  0  0
   -6.5794    0.0709   -0.1635 N   0  0  0  0  0  0  0  0  0  0  0  0
   -7.5044    0.5033    0.8989 C   0  0  0  0  0  0  0  0  0  0  0  0
   -8.7598    1.1919    0.3146 C   0  0  0  0  0  0  0  0  0  0  0  0
   -9.5180    0.4023   -0.6707 N   0  0  0  0  0  0  0  0  0  0  0  0
   -8.6253   -0.4716   -1.4567 C   0  0  0  0  0  0  0  0  0  0  0  0
   -7.1450   -0.0300   -1.5190 C   0  0  0  0  0  0  0  0  0  0  0  0
   -4.2775    0.1595   -0.9732 C   0  0  0  0  0  0  0  0  0  0  0  0
   -2.8952    0.1062   -0.7375 C   0  0  0  0  0  0  0  0  0  0  0  0
   11.1440    0.2397    0.5184 H   0  0  0  0  0  0  0  0  0  0  0  0
   11.2327   -1.1336   -0.6116 H   0  0  0  0  0  0  0  0  0  0  0  0
   11.4420    0.5371   -1.1935 H   0  0  0  0  0  0  0  0  0  0  0  0
    9.6211    0.2811   -2.8663 H   0  0  0  0  0  0  0  0  0  0  0  0
    7.1793    0.3773   -3.3142 H   0  0  0  0  0  0  0  0  0  0  0  0
    4.6809    0.1905   -1.8679 H   0  0  0  0  0  0  0  0  0  0  0  0
    8.8663   -0.3429    1.3481 H   0  0  0  0  0  0  0  0  0  0  0  0
    4.2582   -0.5273    2.7518 H   0  0  0  0  0  0  0  0  0  0  0  0
    1.9762   -0.6559    3.7204 H   0  0  0  0  0  0  0  0  0  0  0  0
   -0.7817   -0.4820    2.8444 H   0  0  0  0  0  0  0  0  0  0  0  0
    2.5792    0.1291   -1.1898 H   0  0  0  0  0  0  0  0  0  0  0  0
   -2.9826   -0.3940    2.6163 H   0  0  0  0  0  0  0  0  0  0  0  0
   -5.3527   -0.3174    2.1933 H   0  0  0  0  0  0  0  0  0  0  0  0
   -7.8045   -0.3699    1.4905 H   0  0  0  0  0  0  0  0  0  0  0  0
   -7.0226    1.2226    1.5724 H   0  0  0  0  0  0  0  0  0  0  0  0
   -8.4545    2.1273   -0.1713 H   0  0  0  0  0  0  0  0  0  0  0  0
   -9.4328    1.4766    1.1314 H   0  0  0  0  0  0  0  0  0  0  0  0
  -10.1932   -0.1883   -0.1862 H   0  0  0  0  0  0  0  0  0  0  0  0
   -8.6648   -1.4783   -1.0205 H   0  0  0  0  0  0  0  0  0  0  0  0
   -9.0262   -0.5509   -2.4728 H   0  0  0  0  0  0  0  0  0  0  0  0
   -6.6054   -0.7810   -2.1085 H   0  0  0  0  0  0  0  0  0  0  0  0
   -7.0609    0.9357   -2.0321 H   0  0  0  0  0  0  0  0  0  0  0  0
   -4.5992    0.3312   -1.9963 H   0  0  0  0  0  0  0  0  0  0  0  0
   -2.2135    0.2232   -1.5788 H   0  0  0  0  0  0  0  0  0  0  0  0
  1  2  1  0
  2  3  2  0
  3  4  1  0
  4  5  2  0
  5  6  1  0
  6  7  1  0
  7  8  2  0
  8  9  1  0
  9 10  2  0
  7 11  1  0
 11 12  2  0
 12 13  1  0
 13 14  2  0
 14 15  1  0
 15 16  1  0
 16 17  2  0
 17 18  1  0
 18 19  2  0
 16 20  1  0
 20 21  1  0
 21 22  2  0
 22 23  1  0
 23 24  1  0
 24 25  1  0
 25 26  1  0
 26 27  1  0
 27 28  1  0
 28 29  1  0
 23 30  2  0
 30 31  1  0
 10  2  1  0
 19 11  1  0
 31 20  2  0
  9  5  1  0
 18 14  1  0
 29 24  1  0
  1 32  1  0
  1 33  1  0
  1 34  1  0
  3 35  1  0
  4 36  1  0
  6 37  1  0
 10 38  1  0
 12 39  1  0
 13 40  1  0
 15 41  1  0
 19 42  1  0
 21 43  1  0
 22 44  1  0
 25 45  1  0
 25 46  1  0
 26 47  1  0
 26 48  1  0
 27 49  1  0
 28 50  1  0
 28 51  1  0
 29 52  1  0
 29 53  1  0
 30 54  1  0
 31 55  1  0
M  END
$$$$
