
     RDKit          3D

 20 20  0  0  0  0  0  0  0  0999 V2000
   -1.0982    1.1637   -1.4581 O   0  0  0  0  0  0  0  0  0  0  0  0
   -1.2493    0.3580   -0.3569 C   0  0  0  0  0  0  0  0  0  0  0  0
   -2.2700   -0.4711   -0.1728 C   0  0  0  0  0  0  0  0  0  0  0  0
   -3.2957   -0.7113   -1.0408 O   0  0  0  0  0  0  0  0  0  0  0  0
   -2.1354   -1.0241    1.1869 C   0  0  0  0  0  0  0  0  0  0  0  0
   -2.8708   -1.8357    1.7169 O   0  0  0  0  0  0  0  0  0  0  0  0
   -1.0455   -0.4440    1.7744 O   0  0  0  0  0  0  0  0  0  0  0  0
   -0.3415    0.3796    0.8165 C   0  0  0  0  0  0  0  0  0  0  0  0
    1.0624   -0.2267    0.6118 C   0  0  0  0  0  0  0  0  0  0  0  0
    1.9024    0.1832    1.7105 O   0  0  0  0  0  0  0  0  0  0  0  0
    1.7698    0.2082   -0.6751 C   0  0  0  0  0  0  0  0  0  0  0  0
    3.0957   -0.3301   -0.6607 O   0  0  0  0  0  0  0  0  0  0  0  0
   -0.5860    1.9552   -1.2051 H   0  0  0  0  0  0  0  0  0  0  0  0
   -3.1124   -0.1708   -1.8314 H   0  0  0  0  0  0  0  0  0  0  0  0
   -0.2765    1.3871    1.2430 H   0  0  0  0  0  0  0  0  0  0  0  0
    1.0230   -1.3219    0.6615 H   0  0  0  0  0  0  0  0  0  0  0  0
    2.7957   -0.1440    1.4763 H   0  0  0  0  0  0  0  0  0  0  0  0
    1.2584   -0.1671   -1.5656 H   0  0  0  0  0  0  0  0  0  0  0  0
    1.8590    1.2980   -0.7257 H   0  0  0  0  0  0  0  0  0  0  0  0
    3.5149   -0.0863   -1.5056 H   0  0  0  0  0  0  0  0  0  0  0  0
  1  2  1  0
  2  3  2  0
  3  4  1  0
  3  5  1  0
  5  6  2  0
  5  7  1  0
  7  8  1  0
  8  9  1  0
  9 10  1  0
  9 11  1  0
 11 12  1  0
  8  2  1  0
  1 13  1  0
  4 14  1  0
  8 15  1  0
  9 16  1  0
 10 17  1  0
 11 18  1  0
 11 19  1  0
 12 20  1  0
M  END
$$$$
