
     RDKit          3D

 35 37  0  0  0  0  0  0  0  0999 V2000
   -5.8559    1.9143    1.1529 N   0  0  0  0  0  0  0  0  0  0  0  0
   -5.6641    0.9245    0.3410 C   0  0  0  0  0  0  0  0  0  0  0  0
   -6.7616    0.2044   -0.0258 N   0  0  0  0  0  0  0  0  0  0  0  0
   -4.3208    0.5584   -0.1797 C   0  0  0  0  0  0  0  0  0  0  0  0
   -4.2058    0.0668   -1.4883 C   0  0  0  0  0  0  0  0  0  0  0  0
   -2.9629   -0.2955   -2.0217 C   0  0  0  0  0  0  0  0  0  0  0  0
   -1.8590   -0.1438   -1.1814 C   0  0  0  0  0  0  0  0  0  0  0  0
   -0.5217   -0.3909   -1.3583 N   0  0  0  0  0  0  0  0  0  0  0  0
    0.1505   -0.0688   -0.1996 C   0  0  0  0  0  0  0  0  0  0  0  0
   -0.7078    0.3638    0.7084 N   0  0  0  0  0  0  0  0  0  0  0  0
   -1.9457    0.3329    0.1190 C   0  0  0  0  0  0  0  0  0  0  0  0
   -3.1937    0.6943    0.6433 C   0  0  0  0  0  0  0  0  0  0  0  0
    1.5991   -0.2094   -0.0092 C   0  0  0  0  0  0  0  0  0  0  0  0
    2.1277   -0.1140    1.2882 C   0  0  0  0  0  0  0  0  0  0  0  0
    3.5007   -0.2407    1.5209 C   0  0  0  0  0  0  0  0  0  0  0  0
    4.3691   -0.4665    0.4514 C   0  0  0  0  0  0  0  0  0  0  0  0
    5.8302   -0.5870    0.7024 C   0  0  0  0  0  0  0  0  0  0  0  0
    6.5987   -1.3618    0.0056 N   0  0  0  0  0  0  0  0  0  0  0  0
    6.4181    0.1404    1.6927 N   0  0  0  0  0  0  0  0  0  0  0  0
    3.8619   -0.5536   -0.8481 C   0  0  0  0  0  0  0  0  0  0  0  0
    2.4853   -0.4255   -1.0756 C   0  0  0  0  0  0  0  0  0  0  0  0
   -4.9834    2.4191    1.3365 H   0  0  0  0  0  0  0  0  0  0  0  0
   -7.5520    0.4379    0.5687 H   0  0  0  0  0  0  0  0  0  0  0  0
   -6.6218   -0.7964   -0.0995 H   0  0  0  0  0  0  0  0  0  0  0  0
   -5.0925   -0.0176   -2.1146 H   0  0  0  0  0  0  0  0  0  0  0  0
   -2.8718   -0.6673   -3.0365 H   0  0  0  0  0  0  0  0  0  0  0  0
   -0.1038   -0.7658   -2.1952 H   0  0  0  0  0  0  0  0  0  0  0  0
   -3.2641    1.0446    1.6662 H   0  0  0  0  0  0  0  0  0  0  0  0
    1.4610    0.0571    2.1332 H   0  0  0  0  0  0  0  0  0  0  0  0
    3.8778   -0.1800    2.5388 H   0  0  0  0  0  0  0  0  0  0  0  0
    6.0621   -1.9039   -0.6763 H   0  0  0  0  0  0  0  0  0  0  0  0
    6.0538    1.0751    1.8345 H   0  0  0  0  0  0  0  0  0  0  0  0
    7.4297    0.1250    1.6027 H   0  0  0  0  0  0  0  0  0  0  0  0
    4.5296   -0.6912   -1.6948 H   0  0  0  0  0  0  0  0  0  0  0  0
    2.1333   -0.4787   -2.1016 H   0  0  0  0  0  0  0  0  0  0  0  0
  1  2  2  3
  2  3  1  0
  2  4  1  0
  4  5  2  0
  5  6  1  0
  6  7  2  0
  7  8  1  0
  8  9  1  0
  9 10  2  0
 10 11  1  0
 11 12  2  0
  9 13  1  0
 13 14  1  0
 14 15  2  0
 15 16  1  0
 16 17  1  0
 17 18  2  3
 17 19  1  0
 16 20  2  0
 20 21  1  0
 12  4  1  0
 21 13  2  0
 11  7  1  0
  1 22  1  0
  3 23  1  0
  3 24  1  0
  5 25  1  0
  6 26  1  0
  8 27  1  0
 12 28  1  0
 14 29  1  0
 15 30  1  0
 18 31  1  0
 19 32  1  0
 19 33  1  0
 20 34  1  0
 21 35  1  0
M  END
$$$$
