
     RDKit          3D

102104  0  0  0  0  0  0  0  0999 V2000
    9.3382   -0.9986    0.8427 C   0  0  0  0  0  0  0  0  0  0  0  0
    7.9372   -1.3597    0.3144 C   0  0  0  0  0  0  0  0  0  0  0  0
    7.3501   -2.4250    1.3039 C   0  0  0  0  0  0  0  0  0  0  0  0
    5.8821   -2.6898    1.1211 C   0  0  0  0  0  0  0  0  0  0  0  0
    4.9683   -2.1618    2.0368 C   0  0  0  0  0  0  0  0  0  0  0  0
    3.6573   -1.9378    1.6387 C   0  0  0  0  0  0  0  0  0  0  0  0
    3.2957   -2.1814    0.3115 C   0  0  0  0  0  0  0  0  0  0  0  0
    4.1157   -2.9968   -0.4775 C   0  0  0  0  0  0  0  0  0  0  0  0
    5.4168   -3.2644   -0.0634 C   0  0  0  0  0  0  0  0  0  0  0  0
    2.2261   -1.3835   -0.3224 C   0  0  0  0  0  0  0  0  0  0  0  0
    2.4638   -0.6189   -1.4127 C   0  0  0  0  0  0  0  0  0  0  0  0
    3.7837   -0.1468   -1.9453 C   0  0  0  0  0  0  0  0  0  0  0  0
    3.8444    0.2036   -3.1226 O   0  0  0  0  0  0  0  0  0  0  0  0
    4.6939    0.2411   -0.9692 N   0  0  0  0  0  0  0  0  0  0  0  0
    4.5803    1.6336   -0.5044 C   0  0  0  0  0  0  0  0  0  0  0  0
    3.1655    2.1363   -0.1180 C   0  0  0  0  0  0  0  0  0  0  0  0
    2.6778    1.5178    1.1953 C   0  0  0  0  0  0  0  0  0  0  0  0
    1.1610    1.5835    1.4808 C   0  0  0  0  0  0  0  0  0  0  0  0
    0.8832    1.0184    2.8716 C   0  0  0  0  0  0  0  0  0  0  0  0
    1.6563    0.3916    3.5790 O   0  0  0  0  0  0  0  0  0  0  0  0
   -0.3538    1.3141    3.3242 O   0  0  0  0  0  0  0  0  0  0  0  0
    0.1916    0.9901    0.4616 C   0  0  0  0  0  0  0  0  0  0  0  0
   -0.7820    1.8540   -0.0731 C   0  0  0  0  0  0  0  0  0  0  0  0
   -1.7924    1.3916   -0.9294 C   0  0  0  0  0  0  0  0  0  0  0  0
   -1.9057    0.0414   -1.2578 C   0  0  0  0  0  0  0  0  0  0  0  0
   -2.8518   -0.4693   -2.1436 N   0  0  0  0  0  0  0  0  0  0  0  0
   -4.0868    0.2404   -2.4617 C   0  0  0  0  0  0  0  0  0  0  0  0
   -5.0852    0.1701   -1.3061 C   0  0  0  0  0  0  0  0  0  0  0  0
   -6.3858    0.8866   -1.6704 C   0  0  0  0  0  0  0  0  0  0  0  0
   -7.3394    0.7761   -0.5662 N   0  0  0  0  0  0  0  0  0  0  0  0
   -8.5923    1.4637   -0.8739 C   0  0  0  0  0  0  0  0  0  0  0  0
   -9.5911    1.3323    0.2805 C   0  0  0  0  0  0  0  0  0  0  0  0
   -9.9523   -0.1076    0.6712 C   0  0  0  0  0  0  0  0  0  0  0  0
  -10.5096   -0.9780   -0.4573 C   0  0  0  0  0  0  0  0  0  0  0  0
  -11.7606   -0.4637   -1.0056 N   0  0  0  0  0  0  0  0  0  0  0  0
   -0.9169   -0.8166   -0.7667 C   0  0  0  0  0  0  0  0  0  0  0  0
    0.1199   -0.3574    0.0655 C   0  0  0  0  0  0  0  0  0  0  0  0
    1.0459   -1.3137    0.4286 O   0  0  0  0  0  0  0  0  0  0  0  0
    5.9500   -0.3732   -1.0727 C   0  0  0  0  0  0  0  0  0  0  0  0
    6.2354   -1.1313   -2.0075 O   0  0  0  0  0  0  0  0  0  0  0  0
    7.0142   -0.0955    0.0602 C   0  0  0  0  0  0  0  0  0  0  0  0
    7.8241    1.0628   -0.3852 N   0  0  0  0  0  0  0  0  0  0  0  0
    3.3926    1.0263   -0.5615 O   0  0  0  0  0  0  0  0  0  0  0  0
    2.3450    0.8953    0.0515 C   0  0  0  0  0  0  0  0  0  0  0  0
    1.9700    1.8215    0.9642 O   0  0  0  0  0  0  0  0  0  0  0  0
    1.3985   -0.2950   -0.0285 C   0  0  0  0  0  0  0  0  0  0  0  0
    0.0029    0.1313    0.1929 N   0  0  0  0  0  0  0  0  0  0  0  0
   -0.8819   -1.0272    0.3608 C   0  0  0  0  0  0  0  0  0  0  0  0
   -2.3453   -0.6107    0.5659 C   0  0  0  0  0  0  0  0  0  0  0  0
   -3.0186    0.2635   -0.8807 S   0  0  0  0  0  0  0  0  0  0  0  0
    9.9111   -0.4291    0.1039 H   0  0  0  0  0  0  0  0  0  0  0  0
    9.9166   -1.9039    1.0595 H   0  0  0  0  0  0  0  0  0  0  0  0
    9.2745   -0.4112    1.7649 H   0  0  0  0  0  0  0  0  0  0  0  0
    8.0957   -1.8682   -0.6460 H   0  0  0  0  0  0  0  0  0  0  0  0
    7.5309   -2.0993    2.3370 H   0  0  0  0  0  0  0  0  0  0  0  0
    7.8977   -3.3699    1.1901 H   0  0  0  0  0  0  0  0  0  0  0  0
    5.2947   -1.7935    3.0067 H   0  0  0  0  0  0  0  0  0  0  0  0
    2.9866   -1.4189    2.3180 H   0  0  0  0  0  0  0  0  0  0  0  0
    3.8269   -3.2681   -1.4916 H   0  0  0  0  0  0  0  0  0  0  0  0
    6.1063   -3.7309   -0.7654 H   0  0  0  0  0  0  0  0  0  0  0  0
    1.6569   -0.0971   -1.9193 H   0  0  0  0  0  0  0  0  0  0  0  0
    4.9541    2.2633   -1.3221 H   0  0  0  0  0  0  0  0  0  0  0  0
    5.2425    1.7961    0.3497 H   0  0  0  0  0  0  0  0  0  0  0  0
    2.4578    1.9757   -0.9347 H   0  0  0  0  0  0  0  0  0  0  0  0
    3.2147    3.2241    0.0187 H   0  0  0  0  0  0  0  0  0  0  0  0
    3.0203    0.4946    1.2659 H   0  0  0  0  0  0  0  0  0  0  0  0
    3.2043    2.0296    2.0142 H   0  0  0  0  0  0  0  0  0  0  0  0
    0.9471    2.6589    1.5739 H   0  0  0  0  0  0  0  0  0  0  0  0
   -0.4048    0.8701    4.1964 H   0  0  0  0  0  0  0  0  0  0  0  0
   -0.7809    2.9126    0.1832 H   0  0  0  0  0  0  0  0  0  0  0  0
   -2.4958    2.1216   -1.3175 H   0  0  0  0  0  0  0  0  0  0  0  0
   -2.9920   -1.4712   -2.0315 H   0  0  0  0  0  0  0  0  0  0  0  0
   -4.5260   -0.2466   -3.3409 H   0  0  0  0  0  0  0  0  0  0  0  0
   -3.8897    1.2752   -2.7620 H   0  0  0  0  0  0  0  0  0  0  0  0
   -4.6542    0.6221   -0.4043 H   0  0  0  0  0  0  0  0  0  0  0  0
   -5.2904   -0.8808   -1.0638 H   0  0  0  0  0  0  0  0  0  0  0  0
   -6.1747    1.9411   -1.8852 H   0  0  0  0  0  0  0  0  0  0  0  0
   -6.8102    0.4334   -2.5741 H   0  0  0  0  0  0  0  0  0  0  0  0
   -6.9325    1.1673    0.2838 H   0  0  0  0  0  0  0  0  0  0  0  0
   -9.0338    1.0620   -1.7927 H   0  0  0  0  0  0  0  0  0  0  0  0
   -8.4002    2.5299   -1.0452 H   0  0  0  0  0  0  0  0  0  0  0  0
  -10.5039    1.8804    0.0178 H   0  0  0  0  0  0  0  0  0  0  0  0
   -9.1834    1.8357    1.1669 H   0  0  0  0  0  0  0  0  0  0  0  0
  -10.6828   -0.0685    1.4898 H   0  0  0  0  0  0  0  0  0  0  0  0
   -9.0660   -0.6037    1.0856 H   0  0  0  0  0  0  0  0  0  0  0  0
  -10.6969   -1.9843   -0.0660 H   0  0  0  0  0  0  0  0  0  0  0  0
   -9.7783   -1.0911   -1.2637 H   0  0  0  0  0  0  0  0  0  0  0  0
  -11.6067    0.4501   -1.4262 H   0  0  0  0  0  0  0  0  0  0  0  0
  -12.4303   -0.3216   -0.2507 H   0  0  0  0  0  0  0  0  0  0  0  0
   -0.9281   -1.8678   -1.0478 H   0  0  0  0  0  0  0  0  0  0  0  0
    6.5037    0.1668    0.9920 H   0  0  0  0  0  0  0  0  0  0  0  0
    7.2410    1.8402   -0.6794 H   0  0  0  0  0  0  0  0  0  0  0  0
    8.4057    1.3964    0.3805 H   0  0  0  0  0  0  0  0  0  0  0  0
    2.6669    2.5071    0.8938 H   0  0  0  0  0  0  0  0  0  0  0  0
    1.4907   -0.7374   -1.0255 H   0  0  0  0  0  0  0  0  0  0  0  0
    1.7208   -1.0170    0.7295 H   0  0  0  0  0  0  0  0  0  0  0  0
   -0.0166    0.7210    1.0297 H   0  0  0  0  0  0  0  0  0  0  0  0
   -0.8087   -1.6881   -0.5119 H   0  0  0  0  0  0  0  0  0  0  0  0
   -0.5650   -1.6056    1.2373 H   0  0  0  0  0  0  0  0  0  0  0  0
   -2.9627   -1.4956    0.7499 H   0  0  0  0  0  0  0  0  0  0  0  0
   -2.4352    0.0447    1.4388 H   0  0  0  0  0  0  0  0  0  0  0  0
   -1.9534    1.0660   -1.0464 H   0  0  0  0  0  0  0  0  0  0  0  0
  1  2  1  0
  2  3  1  0
  3  4  1  0
  4  5  1  0
  5  6  2  0
  6  7  1  0
  7  8  2  0
  8  9  1  0
  7 10  1  0
 10 11  2  3
 11 12  1  0
 12 13  2  0
 12 14  1  0
 14 15  1  0
 15 16  1  0
 16 17  1  0
 17 18  1  0
 18 19  1  0
 19 20  2  0
 19 21  1  0
 18 22  1  0
 22 23  1  0
 23 24  2  0
 24 25  1  0
 25 26  1  0
 26 27  1  0
 27 28  1  0
 28 29  1  0
 29 30  1  0
 30 31  1  0
 31 32  1  0
 32 33  1  0
 33 34  1  0
 34 35  1  0
 25 36  2  0
 36 37  1  0
 37 38  1  0
 14 39  1  0
 39 40  2  0
 39 41  1  0
 41 42  1  0
 43 44  2  0
 44 45  1  0
 44 46  1  0
 46 47  1  0
 47 48  1  0
 48 49  1  0
 49 50  1  0
 41  2  1  0
  9  4  2  0
 38 10  1  0
 37 22  2  0
  1 51  1  0
  1 52  1  0
  1 53  1  0
  2 54  1  0
  3 55  1  0
  3 56  1  0
  5 57  1  0
  6 58  1  0
  8 59  1  0
  9 60  1  0
 11 61  1  0
 15 62  1  0
 15 63  1  0
 16 64  1  0
 16 65  1  0
 17 66  1  0
 17 67  1  0
 18 68  1  0
 21 69  1  0
 23 70  1  0
 24 71  1  0
 26 72  1  0
 27 73  1  0
 27 74  1  0
 28 75  1  0
 28 76  1  0
 29 77  1  0
 29 78  1  0
 30 79  1  0
 31 80  1  0
 31 81  1  0
 32 82  1  0
 32 83  1  0
 33 84  1  0
 33 85  1  0
 34 86  1  0
 34 87  1  0
 35 88  1  0
 35 89  1  0
 36 90  1  0
 41 91  1  0
 42 92  1  0
 42 93  1  0
 45 94  1  0
 46 95  1  0
 46 96  1  0
 47 97  1  0
 48 98  1  0
 48 99  1  0
 49100  1  0
 49101  1  0
 50102  1  0
M  END
$$$$
