
     RDKit          3D

 84 85  0  0  0  0  0  0  0  0999 V2000
   -8.5175   -1.5864   -3.7515 N   0  0  0  0  0  0  0  0  0  0  0  0
   -9.7304   -1.5994   -3.3082 C   0  0  0  0  0  0  0  0  0  0  0  0
  -10.7670   -1.1511   -4.0674 N   0  0  0  0  0  0  0  0  0  0  0  0
   -9.9999   -2.1308   -1.9132 C   0  0  0  0  0  0  0  0  0  0  0  0
   -9.3322   -1.2586   -0.8504 C   0  0  0  0  0  0  0  0  0  0  0  0
   -7.8854   -1.4684   -0.8565 N   0  0  0  0  0  0  0  0  0  0  0  0
   -7.0625   -0.6356   -0.0932 C   0  0  0  0  0  0  0  0  0  0  0  0
   -7.4932    0.0170    1.0703 C   0  0  0  0  0  0  0  0  0  0  0  0
   -6.6101    0.7801    1.8424 C   0  0  0  0  0  0  0  0  0  0  0  0
   -5.2703    0.8706    1.4681 C   0  0  0  0  0  0  0  0  0  0  0  0
   -4.3155    1.6624    2.2559 C   0  0  0  0  0  0  0  0  0  0  0  0
   -4.6461    2.2866    3.2556 O   0  0  0  0  0  0  0  0  0  0  0  0
   -2.9225    1.6727    1.7812 C   0  0  0  0  0  0  0  0  0  0  0  0
   -2.5975    0.9720    0.6845 C   0  0  0  0  0  0  0  0  0  0  0  0
   -1.2189    0.9532    0.1579 C   0  0  0  0  0  0  0  0  0  0  0  0
   -0.9905    1.0233   -1.2200 C   0  0  0  0  0  0  0  0  0  0  0  0
    0.3133    0.9983   -1.7317 C   0  0  0  0  0  0  0  0  0  0  0  0
    1.4316    0.9221   -0.8910 C   0  0  0  0  0  0  0  0  0  0  0  0
    2.6949    0.8353   -1.4755 N   0  0  0  0  0  0  0  0  0  0  0  0
    3.9172    1.0358   -0.6985 C   0  0  0  0  0  0  0  0  0  0  0  0
    4.4638   -0.3091   -0.2181 C   0  0  0  0  0  0  0  0  0  0  0  0
    5.6787   -0.1573    0.6995 C   0  0  0  0  0  0  0  0  0  0  0  0
    6.8021    0.4564   -0.0071 N   0  0  0  0  0  0  0  0  0  0  0  0
    7.9555    0.7091    0.8590 C   0  0  0  0  0  0  0  0  0  0  0  0
    8.7617   -0.5561    1.1719 C   0  0  0  0  0  0  0  0  0  0  0  0
    9.9597   -0.2960    2.0926 C   0  0  0  0  0  0  0  0  0  0  0  0
   11.0427    0.5691    1.4476 C   0  0  0  0  0  0  0  0  0  0  0  0
   12.1968    0.7022    2.3300 N   0  0  0  0  0  0  0  0  0  0  0  0
    1.1932    0.8007    0.4804 C   0  0  0  0  0  0  0  0  0  0  0  0
   -0.1091    0.8266    1.0013 C   0  0  0  0  0  0  0  0  0  0  0  0
   -3.5021    0.2342   -0.0647 O   0  0  0  0  0  0  0  0  0  0  0  0
   -4.8118    0.1978    0.3433 C   0  0  0  0  0  0  0  0  0  0  0  0
   -5.6998   -0.5606   -0.4227 C   0  0  0  0  0  0  0  0  0  0  0  0
    3.2652    1.4091   -0.5081 O   0  0  0  0  0  0  0  0  0  0  0  0
    2.2419    1.1360    0.0992 C   0  0  0  0  0  0  0  0  0  0  0  0
    1.7854    1.9616    1.0696 O   0  0  0  0  0  0  0  0  0  0  0  0
    1.4182   -0.1358   -0.0519 C   0  0  0  0  0  0  0  0  0  0  0  0
   -0.0108    0.1339    0.2012 N   0  0  0  0  0  0  0  0  0  0  0  0
   -0.7737   -1.1156    0.2994 C   0  0  0  0  0  0  0  0  0  0  0  0
   -2.2692   -0.8615    0.5359 C   0  0  0  0  0  0  0  0  0  0  0  0
   -3.0411    0.0290   -0.8504 S   0  0  0  0  0  0  0  0  0  0  0  0
   -8.5078   -1.2383   -4.7134 H   0  0  0  0  0  0  0  0  0  0  0  0
  -10.5483   -0.5336   -4.8395 H   0  0  0  0  0  0  0  0  0  0  0  0
  -11.6353   -0.9189   -3.5978 H   0  0  0  0  0  0  0  0  0  0  0  0
   -9.6347   -3.1631   -1.8599 H   0  0  0  0  0  0  0  0  0  0  0  0
  -11.0822   -2.1494   -1.7426 H   0  0  0  0  0  0  0  0  0  0  0  0
   -9.5661   -0.2030   -1.0367 H   0  0  0  0  0  0  0  0  0  0  0  0
   -9.7377   -1.5394    0.1282 H   0  0  0  0  0  0  0  0  0  0  0  0
   -7.5452   -1.5594   -1.8238 H   0  0  0  0  0  0  0  0  0  0  0  0
   -8.5239   -0.0608    1.4029 H   0  0  0  0  0  0  0  0  0  0  0  0
   -6.9678    1.2882    2.7348 H   0  0  0  0  0  0  0  0  0  0  0  0
   -2.2213    2.2677    2.3513 H   0  0  0  0  0  0  0  0  0  0  0  0
   -1.8242    1.0955   -1.9152 H   0  0  0  0  0  0  0  0  0  0  0  0
    0.4470    1.0357   -2.8103 H   0  0  0  0  0  0  0  0  0  0  0  0
    2.7296    1.2926   -2.3833 H   0  0  0  0  0  0  0  0  0  0  0  0
    4.6545    1.5079   -1.3589 H   0  0  0  0  0  0  0  0  0  0  0  0
    3.7620    1.7350    0.1314 H   0  0  0  0  0  0  0  0  0  0  0  0
    4.7220   -0.9330   -1.0839 H   0  0  0  0  0  0  0  0  0  0  0  0
    3.6876   -0.8582    0.3281 H   0  0  0  0  0  0  0  0  0  0  0  0
    5.9551   -1.1513    1.0674 H   0  0  0  0  0  0  0  0  0  0  0  0
    5.3965    0.4518    1.5666 H   0  0  0  0  0  0  0  0  0  0  0  0
    7.0815   -0.1350   -0.7907 H   0  0  0  0  0  0  0  0  0  0  0  0
    8.5951    1.4215    0.3274 H   0  0  0  0  0  0  0  0  0  0  0  0
    7.6415    1.2089    1.7831 H   0  0  0  0  0  0  0  0  0  0  0  0
    8.1193   -1.2934    1.6670 H   0  0  0  0  0  0  0  0  0  0  0  0
    9.1112   -1.0169    0.2396 H   0  0  0  0  0  0  0  0  0  0  0  0
   10.3904   -1.2672    2.3691 H   0  0  0  0  0  0  0  0  0  0  0  0
    9.6111    0.1700    3.0229 H   0  0  0  0  0  0  0  0  0  0  0  0
   10.6617    1.5709    1.2281 H   0  0  0  0  0  0  0  0  0  0  0  0
   11.3689    0.1264    0.5005 H   0  0  0  0  0  0  0  0  0  0  0  0
   11.9050    1.1020    3.2213 H   0  0  0  0  0  0  0  0  0  0  0  0
   12.5726   -0.2204    2.5468 H   0  0  0  0  0  0  0  0  0  0  0  0
    2.0134    0.6775    1.1805 H   0  0  0  0  0  0  0  0  0  0  0  0
   -0.2372    0.7232    2.0764 H   0  0  0  0  0  0  0  0  0  0  0  0
   -5.3233   -1.0998   -1.2889 H   0  0  0  0  0  0  0  0  0  0  0  0
    2.4098    2.7166    1.0399 H   0  0  0  0  0  0  0  0  0  0  0  0
    1.5439   -0.5037   -1.0752 H   0  0  0  0  0  0  0  0  0  0  0  0
    1.8185   -0.8677    0.6579 H   0  0  0  0  0  0  0  0  0  0  0  0
   -0.0806    0.6655    1.0735 H   0  0  0  0  0  0  0  0  0  0  0  0
   -0.6438   -1.7103   -0.6135 H   0  0  0  0  0  0  0  0  0  0  0  0
   -0.3919   -1.7128    1.1364 H   0  0  0  0  0  0  0  0  0  0  0  0
   -2.7933   -1.8136    0.6663 H   0  0  0  0  0  0  0  0  0  0  0  0
   -2.4153   -0.2740    1.4486 H   0  0  0  0  0  0  0  0  0  0  0  0
   -2.0632    0.9432   -0.9691 H   0  0  0  0  0  0  0  0  0  0  0  0
  1  2  2  3
  2  3  1  0
  2  4  1  0
  4  5  1  0
  5  6  1  0
  6  7  1  0
  7  8  1  0
  8  9  2  0
  9 10  1  0
 10 11  1  0
 11 12  2  0
 11 13  1  0
 13 14  2  0
 14 15  1  0
 15 16  1  0
 16 17  2  0
 17 18  1  0
 18 19  1  0
 19 20  1  0
 20 21  1  0
 21 22  1  0
 22 23  1  0
 23 24  1  0
 24 25  1  0
 25 26  1  0
 26 27  1  0
 27 28  1  0
 18 29  2  0
 29 30  1  0
 14 31  1  0
 31 32  1  0
 32 33  1  0
 34 35  2  0
 35 36  1  0
 35 37  1  0
 37 38  1  0
 38 39  1  0
 39 40  1  0
 40 41  1  0
 33  7  2  0
 32 10  2  0
 30 15  2  0
  1 42  1  0
  3 43  1  0
  3 44  1  0
  4 45  1  0
  4 46  1  0
  5 47  1  0
  5 48  1  0
  6 49  1  0
  8 50  1  0
  9 51  1  0
 13 52  1  0
 16 53  1  0
 17 54  1  0
 19 55  1  0
 20 56  1  0
 20 57  1  0
 21 58  1  0
 21 59  1  0
 22 60  1  0
 22 61  1  0
 23 62  1  0
 24 63  1  0
 24 64  1  0
 25 65  1  0
 25 66  1  0
 26 67  1  0
 26 68  1  0
 27 69  1  0
 27 70  1  0
 28 71  1  0
 28 72  1  0
 29 73  1  0
 30 74  1  0
 33 75  1  0
 36 76  1  0
 37 77  1  0
 37 78  1  0
 38 79  1  0
 39 80  1  0
 39 81  1  0
 40 82  1  0
 40 83  1  0
 41 84  1  0
M  END
$$$$
