
     RDKit          3D

100101  0  0  0  0  0  0  0  0999 V2000
  -14.0156    1.7181   -1.5318 N   0  0  0  0  0  0  0  0  0  0  0  0
  -12.7493    2.1721   -2.0980 C   0  0  0  0  0  0  0  0  0  0  0  0
  -11.7029    1.0586   -2.0683 C   0  0  0  0  0  0  0  0  0  0  0  0
  -10.3742    1.5366   -2.6634 C   0  0  0  0  0  0  0  0  0  0  0  0
   -9.3104    0.4358   -2.7158 C   0  0  0  0  0  0  0  0  0  0  0  0
   -8.9498   -0.0136   -1.3708 N   0  0  0  0  0  0  0  0  0  0  0  0
   -7.9193   -1.0568   -1.4247 C   0  0  0  0  0  0  0  0  0  0  0  0
   -7.5658   -1.5027   -0.0040 C   0  0  0  0  0  0  0  0  0  0  0  0
   -6.5684   -2.6624    0.0056 C   0  0  0  0  0  0  0  0  0  0  0  0
   -5.2837   -2.2757   -0.5681 N   0  0  0  0  0  0  0  0  0  0  0  0
   -4.2529   -1.7532    0.2133 C   0  0  0  0  0  0  0  0  0  0  0  0
   -4.4268   -1.2225    1.4933 C   0  0  0  0  0  0  0  0  0  0  0  0
   -3.3578   -0.6467    2.1980 C   0  0  0  0  0  0  0  0  0  0  0  0
   -2.0813   -0.5593    1.6315 C   0  0  0  0  0  0  0  0  0  0  0  0
   -0.9732    0.0411    2.3706 C   0  0  0  0  0  0  0  0  0  0  0  0
   -0.8408    0.6163    3.6187 C   0  0  0  0  0  0  0  0  0  0  0  0
    0.5144    1.0118    3.7452 C   0  0  0  0  0  0  0  0  0  0  0  0
    1.1444    0.6583    2.5687 C   0  0  0  0  0  0  0  0  0  0  0  0
    2.5087    0.7806    2.0603 C   0  0  0  0  0  0  0  0  0  0  0  0
    3.5122    1.3738    2.8345 C   0  0  0  0  0  0  0  0  0  0  0  0
    4.8247    1.4947    2.3515 C   0  0  0  0  0  0  0  0  0  0  0  0
    5.1734    1.0542    1.0729 C   0  0  0  0  0  0  0  0  0  0  0  0
    6.4690    1.0833    0.5637 N   0  0  0  0  0  0  0  0  0  0  0  0
    7.5079    1.9453    1.1215 C   0  0  0  0  0  0  0  0  0  0  0  0
    8.3435    1.2009    2.1648 C   0  0  0  0  0  0  0  0  0  0  0  0
    9.2089    0.0855    1.5689 C   0  0  0  0  0  0  0  0  0  0  0  0
   10.2770    0.6414    0.7297 N   0  0  0  0  0  0  0  0  0  0  0  0
   11.1028   -0.3974    0.1099 C   0  0  0  0  0  0  0  0  0  0  0  0
   10.4025   -1.1978   -0.9962 C   0  0  0  0  0  0  0  0  0  0  0  0
    9.8637   -0.3126   -2.1264 C   0  0  0  0  0  0  0  0  0  0  0  0
    9.1272   -1.0987   -3.2135 C   0  0  0  0  0  0  0  0  0  0  0  0
    9.9959   -2.0055   -3.9556 N   0  0  0  0  0  0  0  0  0  0  0  0
    4.1747    0.4263    0.3184 C   0  0  0  0  0  0  0  0  0  0  0  0
    2.8625    0.3019    0.7946 C   0  0  0  0  0  0  0  0  0  0  0  0
    0.2364    0.0682    1.7349 O   0  0  0  0  0  0  0  0  0  0  0  0
   -1.9110   -1.0551    0.3349 C   0  0  0  0  0  0  0  0  0  0  0  0
   -2.9822   -1.6292   -0.3631 C   0  0  0  0  0  0  0  0  0  0  0  0
    3.4668    1.0161   -0.1581 O   0  0  0  0  0  0  0  0  0  0  0  0
    2.3349    0.9400    0.2932 C   0  0  0  0  0  0  0  0  0  0  0  0
    1.8060    1.9772    0.9830 O   0  0  0  0  0  0  0  0  0  0  0  0
    1.4276   -0.2821    0.2455 C   0  0  0  0  0  0  0  0  0  0  0  0
    0.0098    0.1222    0.1746 N   0  0  0  0  0  0  0  0  0  0  0  0
   -0.8774   -1.0295    0.3738 C   0  0  0  0  0  0  0  0  0  0  0  0
   -2.3592   -0.6398    0.2778 C   0  0  0  0  0  0  0  0  0  0  0  0
   -2.7981   -0.0142   -1.3734 S   0  0  0  0  0  0  0  0  0  0  0  0
  -14.3408    0.8988   -2.0441 H   0  0  0  0  0  0  0  0  0  0  0  0
  -13.8607    1.3994   -0.5754 H   0  0  0  0  0  0  0  0  0  0  0  0
  -12.3971    3.0394   -1.5291 H   0  0  0  0  0  0  0  0  0  0  0  0
  -12.9210    2.5045   -3.1274 H   0  0  0  0  0  0  0  0  0  0  0  0
  -12.0658    0.1928   -2.6363 H   0  0  0  0  0  0  0  0  0  0  0  0
  -11.5523    0.7269   -1.0338 H   0  0  0  0  0  0  0  0  0  0  0  0
  -10.5464    1.8979   -3.6849 H   0  0  0  0  0  0  0  0  0  0  0  0
   -9.9963    2.3909   -2.0874 H   0  0  0  0  0  0  0  0  0  0  0  0
   -8.4254    0.8309   -3.2289 H   0  0  0  0  0  0  0  0  0  0  0  0
   -9.6917   -0.4057   -3.3065 H   0  0  0  0  0  0  0  0  0  0  0  0
   -8.5902    0.7789   -0.8372 H   0  0  0  0  0  0  0  0  0  0  0  0
   -7.0255   -0.6742   -1.9311 H   0  0  0  0  0  0  0  0  0  0  0  0
   -8.2931   -1.9164   -1.9936 H   0  0  0  0  0  0  0  0  0  0  0  0
   -7.1720   -0.6499    0.5609 H   0  0  0  0  0  0  0  0  0  0  0  0
   -8.4776   -1.8316    0.5109 H   0  0  0  0  0  0  0  0  0  0  0  0
   -6.4498   -3.0656    1.0182 H   0  0  0  0  0  0  0  0  0  0  0  0
   -6.9769   -3.4840   -0.5957 H   0  0  0  0  0  0  0  0  0  0  0  0
   -4.9336   -2.9504   -1.2450 H   0  0  0  0  0  0  0  0  0  0  0  0
   -5.3957   -1.2443    1.9816 H   0  0  0  0  0  0  0  0  0  0  0  0
   -3.5491   -0.2622    3.1964 H   0  0  0  0  0  0  0  0  0  0  0  0
   -1.6232    0.7393    4.3534 H   0  0  0  0  0  0  0  0  0  0  0  0
    0.9714    1.4964    4.5957 H   0  0  0  0  0  0  0  0  0  0  0  0
    3.2961    1.7464    3.8322 H   0  0  0  0  0  0  0  0  0  0  0  0
    5.5638    1.9431    3.0077 H   0  0  0  0  0  0  0  0  0  0  0  0
    6.4917    1.0522   -0.4527 H   0  0  0  0  0  0  0  0  0  0  0  0
    8.1518    2.2858    0.3022 H   0  0  0  0  0  0  0  0  0  0  0  0
    7.0787    2.8568    1.5538 H   0  0  0  0  0  0  0  0  0  0  0  0
    8.9863    1.9214    2.6862 H   0  0  0  0  0  0  0  0  0  0  0  0
    7.6896    0.7608    2.9269 H   0  0  0  0  0  0  0  0  0  0  0  0
    9.6552   -0.4863    2.3915 H   0  0  0  0  0  0  0  0  0  0  0  0
    8.5711   -0.5986    1.0006 H   0  0  0  0  0  0  0  0  0  0  0  0
   10.8770    1.2261    1.3126 H   0  0  0  0  0  0  0  0  0  0  0  0
   11.9783    0.0952   -0.3305 H   0  0  0  0  0  0  0  0  0  0  0  0
   11.4895   -1.0822    0.8744 H   0  0  0  0  0  0  0  0  0  0  0  0
    9.5882   -1.7984   -0.5755 H   0  0  0  0  0  0  0  0  0  0  0  0
   11.1316   -1.9093   -1.4015 H   0  0  0  0  0  0  0  0  0  0  0  0
   10.6880    0.2568   -2.5737 H   0  0  0  0  0  0  0  0  0  0  0  0
    9.1611    0.4222   -1.7156 H   0  0  0  0  0  0  0  0  0  0  0  0
    8.3017   -1.6694   -2.7742 H   0  0  0  0  0  0  0  0  0  0  0  0
    8.6831   -0.3922   -3.9233 H   0  0  0  0  0  0  0  0  0  0  0  0
   10.8072   -1.4944   -4.3010 H   0  0  0  0  0  0  0  0  0  0  0  0
   10.3573   -2.7259   -3.3333 H   0  0  0  0  0  0  0  0  0  0  0  0
    4.4091    0.0195   -0.6625 H   0  0  0  0  0  0  0  0  0  0  0  0
    2.1229   -0.1837    0.1621 H   0  0  0  0  0  0  0  0  0  0  0  0
   -0.9423   -0.9938   -0.1561 H   0  0  0  0  0  0  0  0  0  0  0  0
   -2.8083   -1.9798   -1.3777 H   0  0  0  0  0  0  0  0  0  0  0  0
    2.4974    2.6693    0.9211 H   0  0  0  0  0  0  0  0  0  0  0  0
    1.6857   -0.8637   -0.6452 H   0  0  0  0  0  0  0  0  0  0  0  0
    1.6304   -0.8719    1.1459 H   0  0  0  0  0  0  0  0  0  0  0  0
   -0.1522    0.8283    0.8982 H   0  0  0  0  0  0  0  0  0  0  0  0
   -0.6558   -1.8093   -0.3654 H   0  0  0  0  0  0  0  0  0  0  0  0
   -0.7008   -1.4600    1.3671 H   0  0  0  0  0  0  0  0  0  0  0  0
   -2.9883   -1.5091    0.4936 H   0  0  0  0  0  0  0  0  0  0  0  0
   -2.5974    0.1341    1.0153 H   0  0  0  0  0  0  0  0  0  0  0  0
   -1.7293    0.7925   -1.4876 H   0  0  0  0  0  0  0  0  0  0  0  0
  1  2  1  0
  2  3  1  0
  3  4  1  0
  4  5  1  0
  5  6  1  0
  6  7  1  0
  7  8  1  0
  8  9  1  0
  9 10  1  0
 10 11  1  0
 11 12  1  0
 12 13  2  0
 13 14  1  0
 14 15  1  0
 15 16  2  0
 16 17  1  0
 17 18  2  0
 18 19  1  0
 19 20  1  0
 20 21  2  0
 21 22  1  0
 22 23  1  0
 23 24  1  0
 24 25  1  0
 25 26  1  0
 26 27  1  0
 27 28  1  0
 28 29  1  0
 29 30  1  0
 30 31  1  0
 31 32  1  0
 22 33  2  0
 33 34  1  0
 18 35  1  0
 14 36  2  0
 36 37  1  0
 38 39  2  0
 39 40  1  0
 39 41  1  0
 41 42  1  0
 42 43  1  0
 43 44  1  0
 44 45  1  0
 37 11  2  0
 35 15  1  0
 34 19  2  0
  1 46  1  0
  1 47  1  0
  2 48  1  0
  2 49  1  0
  3 50  1  0
  3 51  1  0
  4 52  1  0
  4 53  1  0
  5 54  1  0
  5 55  1  0
  6 56  1  0
  7 57  1  0
  7 58  1  0
  8 59  1  0
  8 60  1  0
  9 61  1  0
  9 62  1  0
 10 63  1  0
 12 64  1  0
 13 65  1  0
 16 66  1  0
 17 67  1  0
 20 68  1  0
 21 69  1  0
 23 70  1  0
 24 71  1  0
 24 72  1  0
 25 73  1  0
 25 74  1  0
 26 75  1  0
 26 76  1  0
 27 77  1  0
 28 78  1  0
 28 79  1  0
 29 80  1  0
 29 81  1  0
 30 82  1  0
 30 83  1  0
 31 84  1  0
 31 85  1  0
 32 86  1  0
 32 87  1  0
 33 88  1  0
 34 89  1  0
 36 90  1  0
 37 91  1  0
 40 92  1  0
 41 93  1  0
 41 94  1  0
 42 95  1  0
 43 96  1  0
 43 97  1  0
 44 98  1  0
 44 99  1  0
 45100  1  0
M  END
$$$$
