
     RDKit          3D

115116  0  0  0  0  0  0  0  0999 V2000
   -4.7475   -0.7498    1.4070 C   0  0  0  0  0  0  0  0  0  0  0  0
   -4.7396   -0.7477   -0.1121 C   0  0  0  0  0  0  0  0  0  0  0  0
   -3.0692   -1.0185   -0.7704 S   0  0  0  0  0  0  0  0  0  0  0  0
   -2.3615    0.5761   -0.5054 C   0  0  0  0  0  0  0  0  0  0  0  0
   -3.0414    1.5498   -0.1936 O   0  0  0  0  0  0  0  0  0  0  0  0
   -0.8345    0.6465   -0.7081 C   0  0  0  0  0  0  0  0  0  0  0  0
   -0.4551    2.0201   -1.1212 N   0  0  0  0  0  0  0  0  0  0  0  0
   -0.1152    0.2774    0.5976 C   0  0  0  0  0  0  0  0  0  0  0  0
    1.3251   -0.2152    0.4129 C   0  0  0  0  0  0  0  0  0  0  0  0
    2.2608    0.7783   -0.2772 C   0  0  0  0  0  0  0  0  0  0  0  0
    3.6447    0.3275   -0.1820 N   0  0  0  0  0  0  0  0  0  0  0  0
    4.1259   -0.6749   -0.9517 C   0  0  0  0  0  0  0  0  0  0  0  0
    3.4948   -1.2481   -1.9075 N   0  0  0  0  0  0  0  0  0  0  0  0
    5.3856   -0.9990   -0.5979 N   0  0  0  0  0  0  0  0  0  0  0  0
  -12.6049    2.8000   -2.4532 N   0  0  0  0  0  0  0  0  0  0  0  0
  -11.2078    2.8226   -2.8740 C   0  0  0  0  0  0  0  0  0  0  0  0
  -10.5175    1.4954   -2.5615 C   0  0  0  0  0  0  0  0  0  0  0  0
   -9.0508    1.5206   -3.0043 C   0  0  0  0  0  0  0  0  0  0  0  0
   -8.3316    0.1883   -2.7722 C   0  0  0  0  0  0  0  0  0  0  0  0
   -8.2607   -0.1316   -1.3464 N   0  0  0  0  0  0  0  0  0  0  0  0
   -7.5638   -1.4012   -1.1229 C   0  0  0  0  0  0  0  0  0  0  0  0
   -7.5032   -1.6982    0.3765 C   0  0  0  0  0  0  0  0  0  0  0  0
   -6.8795   -3.0619    0.6806 C   0  0  0  0  0  0  0  0  0  0  0  0
   -5.4782   -3.1510    0.2846 N   0  0  0  0  0  0  0  0  0  0  0  0
   -4.4660   -2.4572    0.9405 C   0  0  0  0  0  0  0  0  0  0  0  0
   -4.5771   -1.9621    2.2419 C   0  0  0  0  0  0  0  0  0  0  0  0
   -3.5011   -1.3203    2.8746 C   0  0  0  0  0  0  0  0  0  0  0  0
   -2.2666   -1.1756    2.2320 C   0  0  0  0  0  0  0  0  0  0  0  0
   -1.1508   -0.5054    2.8953 C   0  0  0  0  0  0  0  0  0  0  0  0
   -0.9599    0.0509    4.1444 C   0  0  0  0  0  0  0  0  0  0  0  0
    0.3652    0.5532    4.1703 C   0  0  0  0  0  0  0  0  0  0  0  0
    0.9193    0.2804    2.9355 C   0  0  0  0  0  0  0  0  0  0  0  0
    2.2213    0.5266    2.3199 C   0  0  0  0  0  0  0  0  0  0  0  0
    3.2404    1.1706    3.0303 C   0  0  0  0  0  0  0  0  0  0  0  0
    4.4931    1.4107    2.4442 C   0  0  0  0  0  0  0  0  0  0  0  0
    4.7619    1.0425    1.1241 C   0  0  0  0  0  0  0  0  0  0  0  0
    6.0023    1.1908    0.5094 N   0  0  0  0  0  0  0  0  0  0  0  0
    7.0196    2.1093    1.0140 C   0  0  0  0  0  0  0  0  0  0  0  0
    7.9948    1.3941    1.9514 C   0  0  0  0  0  0  0  0  0  0  0  0
    8.8844    0.3702    1.2386 C   0  0  0  0  0  0  0  0  0  0  0  0
    9.8324    1.0359    0.3372 N   0  0  0  0  0  0  0  0  0  0  0  0
   10.6734    0.0858   -0.3945 C   0  0  0  0  0  0  0  0  0  0  0  0
    9.9387   -0.7216   -1.4728 C   0  0  0  0  0  0  0  0  0  0  0  0
    9.2432    0.1636   -2.5138 C   0  0  0  0  0  0  0  0  0  0  0  0
    8.4728   -0.6328   -3.5695 C   0  0  0  0  0  0  0  0  0  0  0  0
    9.3359   -1.4437   -4.4210 N   0  0  0  0  0  0  0  0  0  0  0  0
    3.7517    0.3637    0.4313 C   0  0  0  0  0  0  0  0  0  0  0  0
    2.4990    0.1202    1.0106 C   0  0  0  0  0  0  0  0  0  0  0  0
   -0.0060   -0.3630    2.1623 O   0  0  0  0  0  0  0  0  0  0  0  0
   -2.1390   -1.7048    0.9435 C   0  0  0  0  0  0  0  0  0  0  0  0
   -3.2171   -2.3449    0.3173 C   0  0  0  0  0  0  0  0  0  0  0  0
   -5.7719   -0.6220    1.7724 H   0  0  0  0  0  0  0  0  0  0  0  0
   -4.3704   -1.6969    1.8078 H   0  0  0  0  0  0  0  0  0  0  0  0
   -4.1465    0.0655    1.8219 H   0  0  0  0  0  0  0  0  0  0  0  0
   -5.3720   -1.5655   -0.4732 H   0  0  0  0  0  0  0  0  0  0  0  0
   -5.1636    0.1813   -0.5058 H   0  0  0  0  0  0  0  0  0  0  0  0
   -0.5493   -0.0378   -1.5153 H   0  0  0  0  0  0  0  0  0  0  0  0
   -0.8858    2.2154   -2.0272 H   0  0  0  0  0  0  0  0  0  0  0  0
   -0.9152    2.6758   -0.4813 H   0  0  0  0  0  0  0  0  0  0  0  0
   -0.1222    1.1308    1.2893 H   0  0  0  0  0  0  0  0  0  0  0  0
   -0.6680   -0.5167    1.1158 H   0  0  0  0  0  0  0  0  0  0  0  0
    1.7267   -0.4629    1.4042 H   0  0  0  0  0  0  0  0  0  0  0  0
    1.3075   -1.1576   -0.1485 H   0  0  0  0  0  0  0  0  0  0  0  0
    2.1924    1.7550    0.2145 H   0  0  0  0  0  0  0  0  0  0  0  0
    1.9905    0.9204   -1.3286 H   0  0  0  0  0  0  0  0  0  0  0  0
    3.9898    0.3057    0.7692 H   0  0  0  0  0  0  0  0  0  0  0  0
    4.0748   -1.9813   -2.3143 H   0  0  0  0  0  0  0  0  0  0  0  0
    5.8819   -1.5490   -1.2868 H   0  0  0  0  0  0  0  0  0  0  0  0
    5.9287   -0.1830   -0.3399 H   0  0  0  0  0  0  0  0  0  0  0  0
  -13.0839    2.0243   -2.9098 H   0  0  0  0  0  0  0  0  0  0  0  0
  -12.6521    2.6013   -1.4539 H   0  0  0  0  0  0  0  0  0  0  0  0
  -10.6968    3.6458   -2.3630 H   0  0  0  0  0  0  0  0  0  0  0  0
  -11.1653    3.0289   -3.9489 H   0  0  0  0  0  0  0  0  0  0  0  0
  -11.0384    0.6765   -3.0735 H   0  0  0  0  0  0  0  0  0  0  0  0
  -10.5805    1.2959   -1.4849 H   0  0  0  0  0  0  0  0  0  0  0  0
   -9.0018    1.7564   -4.0747 H   0  0  0  0  0  0  0  0  0  0  0  0
   -8.5195    2.3255   -2.4806 H   0  0  0  0  0  0  0  0  0  0  0  0
   -7.3204    0.2609   -3.1903 H   0  0  0  0  0  0  0  0  0  0  0  0
   -8.8608   -0.6056   -3.3125 H   0  0  0  0  0  0  0  0  0  0  0  0
   -7.7658    0.6149   -0.8564 H   0  0  0  0  0  0  0  0  0  0  0  0
   -6.5497   -1.3472   -1.5350 H   0  0  0  0  0  0  0  0  0  0  0  0
   -8.0973   -2.2118   -1.6332 H   0  0  0  0  0  0  0  0  0  0  0  0
   -6.9538   -0.9008    0.8908 H   0  0  0  0  0  0  0  0  0  0  0  0
   -8.5217   -1.6928    0.7861 H   0  0  0  0  0  0  0  0  0  0  0  0
   -6.9974   -3.3044    1.7427 H   0  0  0  0  0  0  0  0  0  0  0  0
   -7.4319   -3.8391    0.1388 H   0  0  0  0  0  0  0  0  0  0  0  0
   -5.3361   -3.2144   -0.7193 H   0  0  0  0  0  0  0  0  0  0  0  0
   -5.5023   -2.0636    2.8002 H   0  0  0  0  0  0  0  0  0  0  0  0
   -3.6493   -0.9436    3.8832 H   0  0  0  0  0  0  0  0  0  0  0  0
   -1.6841    0.0910    4.9450 H   0  0  0  0  0  0  0  0  0  0  0  0
    0.8526    1.0537    4.9944 H   0  0  0  0  0  0  0  0  0  0  0  0
    3.0844    1.4906    4.0571 H   0  0  0  0  0  0  0  0  0  0  0  0
    5.2505    1.8932    3.0537 H   0  0  0  0  0  0  0  0  0  0  0  0
    5.9396    1.1963   -0.5056 H   0  0  0  0  0  0  0  0  0  0  0  0
    7.5634    2.5272    0.1587 H   0  0  0  0  0  0  0  0  0  0  0  0
    6.5639    2.9692    1.5188 H   0  0  0  0  0  0  0  0  0  0  0  0
    8.6260    2.1426    2.4470 H   0  0  0  0  0  0  0  0  0  0  0  0
    7.4434    0.8785    2.7464 H   0  0  0  0  0  0  0  0  0  0  0  0
    9.4407   -0.1952    1.9959 H   0  0  0  0  0  0  0  0  0  0  0  0
    8.2513   -0.3397    0.6971 H   0  0  0  0  0  0  0  0  0  0  0  0
   10.4375    1.6418    0.8926 H   0  0  0  0  0  0  0  0  0  0  0  0
   11.4705    0.6587   -0.8840 H   0  0  0  0  0  0  0  0  0  0  0  0
   11.1723   -0.5969    0.3040 H   0  0  0  0  0  0  0  0  0  0  0  0
    9.2083   -1.3967   -1.0128 H   0  0  0  0  0  0  0  0  0  0  0  0
   10.6787   -1.3610   -1.9686 H   0  0  0  0  0  0  0  0  0  0  0  0
    9.9835    0.8092   -3.0027 H   0  0  0  0  0  0  0  0  0  0  0  0
    8.5285    0.8282   -2.0137 H   0  0  0  0  0  0  0  0  0  0  0  0
    7.7307   -1.2794   -3.0886 H   0  0  0  0  0  0  0  0  0  0  0  0
    7.9203    0.0655   -4.2077 H   0  0  0  0  0  0  0  0  0  0  0  0
   10.0762   -0.8611   -4.8099 H   0  0  0  0  0  0  0  0  0  0  0  0
    9.7998   -2.1585   -3.8636 H   0  0  0  0  0  0  0  0  0  0  0  0
    3.9302    0.0100   -0.5814 H   0  0  0  0  0  0  0  0  0  0  0  0
    1.7461   -0.4006    0.4233 H   0  0  0  0  0  0  0  0  0  0  0  0
   -1.1934   -1.6351    0.4104 H   0  0  0  0  0  0  0  0  0  0  0  0
   -3.0641   -2.7591   -0.6763 H   0  0  0  0  0  0  0  0  0  0  0  0
  1  2  1  0
  2  3  1  0
  3  4  1  0
  4  5  2  0
  4  6  1  0
  6  7  1  0
  6  8  1  0
  8  9  1  0
  9 10  1  0
 10 11  1  0
 11 12  1  0
 12 13  2  3
 12 14  1  0
 15 16  1  0
 16 17  1  0
 17 18  1  0
 18 19  1  0
 19 20  1  0
 20 21  1  0
 21 22  1  0
 22 23  1  0
 23 24  1  0
 24 25  1  0
 25 26  1  0
 26 27  2  0
 27 28  1  0
 28 29  1  0
 29 30  2  0
 30 31  1  0
 31 32  2  0
 32 33  1  0
 33 34  1  0
 34 35  2  0
 35 36  1  0
 36 37  1  0
 37 38  1  0
 38 39  1  0
 39 40  1  0
 40 41  1  0
 41 42  1  0
 42 43  1  0
 43 44  1  0
 44 45  1  0
 45 46  1  0
 36 47  2  0
 47 48  1  0
 32 49  1  0
 28 50  2  0
 50 51  1  0
 51 25  2  0
 49 29  1  0
 48 33  2  0
  1 52  1  0
  1 53  1  0
  1 54  1  0
  2 55  1  0
  2 56  1  0
  6 57  1  0
  7 58  1  0
  7 59  1  0
  8 60  1  0
  8 61  1  0
  9 62  1  0
  9 63  1  0
 10 64  1  0
 10 65  1  0
 11 66  1  0
 13 67  1  0
 14 68  1  0
 14 69  1  0
 15 70  1  0
 15 71  1  0
 16 72  1  0
 16 73  1  0
 17 74  1  0
 17 75  1  0
 18 76  1  0
 18 77  1  0
 19 78  1  0
 19 79  1  0
 20 80  1  0
 21 81  1  0
 21 82  1  0
 22 83  1  0
 22 84  1  0
 23 85  1  0
 23 86  1  0
 24 87  1  0
 26 88  1  0
 27 89  1  0
 30 90  1  0
 31 91  1  0
 34 92  1  0
 35 93  1  0
 37 94  1  0
 38 95  1  0
 38 96  1  0
 39 97  1  0
 39 98  1  0
 40 99  1  0
 40100  1  0
 41101  1  0
 42102  1  0
 42103  1  0
 43104  1  0
 43105  1  0
 44106  1  0
 44107  1  0
 45108  1  0
 45109  1  0
 46110  1  0
 46111  1  0
 47112  1  0
 48113  1  0
 50114  1  0
 51115  1  0
M  END
$$$$
