
     RDKit          3D

102104  0  0  0  0  0  0  0  0999 V2000
   -4.7609   -0.9625    4.5351 C   0  0  0  0  0  0  0  0  0  0  0  0
   -3.8272   -1.0597    3.3127 C   0  0  0  0  0  0  0  0  0  0  0  0
   -4.2452   -2.3106    2.4657 C   0  0  0  0  0  0  0  0  0  0  0  0
   -4.9107   -1.9890    1.1528 C   0  0  0  0  0  0  0  0  0  0  0  0
   -6.1968   -1.4483    1.1105 C   0  0  0  0  0  0  0  0  0  0  0  0
   -6.6250   -0.7750   -0.0320 C   0  0  0  0  0  0  0  0  0  0  0  0
   -5.7573   -0.6044   -1.1265 C   0  0  0  0  0  0  0  0  0  0  0  0
   -4.5272   -1.2875   -1.1271 C   0  0  0  0  0  0  0  0  0  0  0  0
   -4.1431   -2.0371   -0.0159 C   0  0  0  0  0  0  0  0  0  0  0  0
   -3.6787   -1.1020   -2.1962 O   0  0  0  0  0  0  0  0  0  0  0  0
   -2.3190   -1.0458   -1.9693 C   0  0  0  0  0  0  0  0  0  0  0  0
   -1.6027   -0.0644   -1.3796 C   0  0  0  0  0  0  0  0  0  0  0  0
   -0.1300   -0.1629   -1.4346 C   0  0  0  0  0  0  0  0  0  0  0  0
    0.5440   -1.1670   -0.7333 C   0  0  0  0  0  0  0  0  0  0  0  0
    1.9386   -1.2672   -0.8004 C   0  0  0  0  0  0  0  0  0  0  0  0
    2.6994   -0.3920   -1.5882 C   0  0  0  0  0  0  0  0  0  0  0  0
    4.0933   -0.5113   -1.5522 N   0  0  0  0  0  0  0  0  0  0  0  0
    4.9054    0.1509   -2.5709 C   0  0  0  0  0  0  0  0  0  0  0  0
    6.3928   -0.1336   -2.3368 C   0  0  0  0  0  0  0  0  0  0  0  0
    6.9855    0.6170   -1.1350 C   0  0  0  0  0  0  0  0  0  0  0  0
    6.3957    0.2768    0.1613 N   0  0  0  0  0  0  0  0  0  0  0  0
    6.8425   -1.0018    0.7115 C   0  0  0  0  0  0  0  0  0  0  0  0
    8.2547   -0.9785    1.3075 C   0  0  0  0  0  0  0  0  0  0  0  0
    8.3928   -0.2434    2.6466 C   0  0  0  0  0  0  0  0  0  0  0  0
    8.0781    1.2494    2.5888 C   0  0  0  0  0  0  0  0  0  0  0  0
    8.4647    1.8893    3.8472 N   0  0  0  0  0  0  0  0  0  0  0  0
    2.0199    0.6347   -2.2502 C   0  0  0  0  0  0  0  0  0  0  0  0
    0.6234    0.7414   -2.1882 C   0  0  0  0  0  0  0  0  0  0  0  0
   -2.2514    1.1813   -0.8404 C   0  0  0  0  0  0  0  0  0  0  0  0
   -1.9484    2.2831   -1.2996 O   0  0  0  0  0  0  0  0  0  0  0  0
   -3.2003    1.0153    0.1611 N   0  0  0  0  0  0  0  0  0  0  0  0
   -4.3192    1.9649    0.1696 C   0  0  0  0  0  0  0  0  0  0  0  0
   -4.8763    2.4973   -1.1705 C   0  0  0  0  0  0  0  0  0  0  0  0
   -5.1133    1.5540   -2.3664 C   0  0  0  0  0  0  0  0  0  0  0  0
   -6.1350    0.3979   -2.2072 C   0  0  0  0  0  0  0  0  0  0  0  0
   -6.4074   -0.2954   -3.5425 C   0  0  0  0  0  0  0  0  0  0  0  0
   -6.4615   -1.4936   -3.7676 O   0  0  0  0  0  0  0  0  0  0  0  0
   -6.6930    0.5715   -4.5382 O   0  0  0  0  0  0  0  0  0  0  0  0
   -2.8248    0.3028    1.3141 C   0  0  0  0  0  0  0  0  0  0  0  0
   -1.7572   -0.3156    1.4074 O   0  0  0  0  0  0  0  0  0  0  0  0
   -3.7641    0.3186    2.5620 C   0  0  0  0  0  0  0  0  0  0  0  0
   -3.2461    1.3658    3.4796 N   0  0  0  0  0  0  0  0  0  0  0  0
    3.5111    0.3276   -0.6373 O   0  0  0  0  0  0  0  0  0  0  0  0
    2.4642    0.4422   -0.0198 C   0  0  0  0  0  0  0  0  0  0  0  0
    2.2705    1.5006    0.8010 O   0  0  0  0  0  0  0  0  0  0  0  0
    1.3206   -0.5630    0.0068 C   0  0  0  0  0  0  0  0  0  0  0  0
    0.0255    0.1233    0.1809 N   0  0  0  0  0  0  0  0  0  0  0  0
   -1.0488   -0.8388    0.4516 C   0  0  0  0  0  0  0  0  0  0  0  0
   -2.4125   -0.1515    0.6101 C   0  0  0  0  0  0  0  0  0  0  0  0
   -2.9370    0.6911   -0.9147 S   0  0  0  0  0  0  0  0  0  0  0  0
   -4.4252   -0.1955    5.2400 H   0  0  0  0  0  0  0  0  0  0  0  0
   -5.7853   -0.7218    4.2329 H   0  0  0  0  0  0  0  0  0  0  0  0
   -4.7824   -1.9104    5.0841 H   0  0  0  0  0  0  0  0  0  0  0  0
   -2.8266   -1.2824    3.7113 H   0  0  0  0  0  0  0  0  0  0  0  0
   -3.3405   -2.9026    2.2708 H   0  0  0  0  0  0  0  0  0  0  0  0
   -4.8987   -2.9812    3.0381 H   0  0  0  0  0  0  0  0  0  0  0  0
   -6.8305   -1.4571    1.9948 H   0  0  0  0  0  0  0  0  0  0  0  0
   -7.6026   -0.2966   -0.0193 H   0  0  0  0  0  0  0  0  0  0  0  0
   -3.1666   -2.5164    0.0058 H   0  0  0  0  0  0  0  0  0  0  0  0
   -1.8557   -1.9006   -2.4520 H   0  0  0  0  0  0  0  0  0  0  0  0
   -0.0060   -1.8628   -0.1030 H   0  0  0  0  0  0  0  0  0  0  0  0
    2.4306   -2.0400   -0.2146 H   0  0  0  0  0  0  0  0  0  0  0  0
    4.3680   -1.4804   -1.4012 H   0  0  0  0  0  0  0  0  0  0  0  0
    4.6264   -0.2284   -3.5612 H   0  0  0  0  0  0  0  0  0  0  0  0
    4.7463    1.2351   -2.5593 H   0  0  0  0  0  0  0  0  0  0  0  0
    6.9419    0.1894   -3.2304 H   0  0  0  0  0  0  0  0  0  0  0  0
    6.5655   -1.2118   -2.2416 H   0  0  0  0  0  0  0  0  0  0  0  0
    6.8275    1.6912   -1.2906 H   0  0  0  0  0  0  0  0  0  0  0  0
    8.0720    0.4817   -1.1205 H   0  0  0  0  0  0  0  0  0  0  0  0
    5.3747    0.2321    0.0308 H   0  0  0  0  0  0  0  0  0  0  0  0
    6.1412   -1.2929    1.5030 H   0  0  0  0  0  0  0  0  0  0  0  0
    6.7790   -1.7897   -0.0472 H   0  0  0  0  0  0  0  0  0  0  0  0
    8.9776   -0.5733    0.5909 H   0  0  0  0  0  0  0  0  0  0  0  0
    8.5576   -2.0203    1.4763 H   0  0  0  0  0  0  0  0  0  0  0  0
    9.4257   -0.3849    2.9919 H   0  0  0  0  0  0  0  0  0  0  0  0
    7.7490   -0.7256    3.3933 H   0  0  0  0  0  0  0  0  0  0  0  0
    8.6153    1.7268    1.7625 H   0  0  0  0  0  0  0  0  0  0  0  0
    7.0066    1.4120    2.4447 H   0  0  0  0  0  0  0  0  0  0  0  0
    8.2453    2.8829    3.7890 H   0  0  0  0  0  0  0  0  0  0  0  0
    9.4748    1.8260    3.9614 H   0  0  0  0  0  0  0  0  0  0  0  0
    2.5541    1.3813   -2.8288 H   0  0  0  0  0  0  0  0  0  0  0  0
    0.1342    1.5498   -2.7287 H   0  0  0  0  0  0  0  0  0  0  0  0
   -5.1670    1.5206    0.6888 H   0  0  0  0  0  0  0  0  0  0  0  0
   -4.0053    2.8206    0.7807 H   0  0  0  0  0  0  0  0  0  0  0  0
   -4.2098    3.2962   -1.5204 H   0  0  0  0  0  0  0  0  0  0  0  0
   -5.8246    3.0057   -0.9490 H   0  0  0  0  0  0  0  0  0  0  0  0
   -5.4736    2.2044   -3.1762 H   0  0  0  0  0  0  0  0  0  0  0  0
   -4.1571    1.1855   -2.7451 H   0  0  0  0  0  0  0  0  0  0  0  0
   -7.0962    0.8530   -1.9285 H   0  0  0  0  0  0  0  0  0  0  0  0
   -6.8628   -0.0125   -5.3078 H   0  0  0  0  0  0  0  0  0  0  0  0
   -4.7832    0.5995    2.3107 H   0  0  0  0  0  0  0  0  0  0  0  0
   -2.3048    1.0887    3.7731 H   0  0  0  0  0  0  0  0  0  0  0  0
   -3.1179    2.2410    2.9723 H   0  0  0  0  0  0  0  0  0  0  0  0
    3.0772    2.0418    0.6706 H   0  0  0  0  0  0  0  0  0  0  0  0
    1.3209   -1.1048   -0.9444 H   0  0  0  0  0  0  0  0  0  0  0  0
    1.5185   -1.2577    0.8302 H   0  0  0  0  0  0  0  0  0  0  0  0
    0.1209    0.7818    0.9592 H   0  0  0  0  0  0  0  0  0  0  0  0
   -1.1045   -1.5798   -0.3556 H   0  0  0  0  0  0  0  0  0  0  0  0
   -0.8293   -1.3809    1.3795 H   0  0  0  0  0  0  0  0  0  0  0  0
   -3.1749   -0.8917    0.8727 H   0  0  0  0  0  0  0  0  0  0  0  0
   -2.3742    0.5872    1.4179 H   0  0  0  0  0  0  0  0  0  0  0  0
   -1.7483    1.2727   -1.1492 H   0  0  0  0  0  0  0  0  0  0  0  0
  1  2  1  0
  2  3  1  0
  3  4  1  0
  4  5  1  0
  5  6  2  0
  6  7  1  0
  7  8  2  0
  8  9  1  0
  8 10  1  0
 10 11  1  0
 11 12  2  3
 12 13  1  0
 13 14  1  0
 14 15  2  0
 15 16  1  0
 16 17  1  0
 17 18  1  0
 18 19  1  0
 19 20  1  0
 20 21  1  0
 21 22  1  0
 22 23  1  0
 23 24  1  0
 24 25  1  0
 25 26  1  0
 16 27  2  0
 27 28  1  0
 12 29  1  0
 29 30  2  0
 29 31  1  0
 31 32  1  0
 32 33  1  0
 33 34  1  0
 34 35  1  0
 35 36  1  0
 36 37  2  0
 36 38  1  0
 31 39  1  0
 39 40  2  0
 39 41  1  0
 41 42  1  0
 43 44  2  0
 44 45  1  0
 44 46  1  0
 46 47  1  0
 47 48  1  0
 48 49  1  0
 49 50  1  0
 41  2  1  0
  9  4  2  0
 28 13  2  0
 35  7  1  0
  1 51  1  0
  1 52  1  0
  1 53  1  0
  2 54  1  0
  3 55  1  0
  3 56  1  0
  5 57  1  0
  6 58  1  0
  9 59  1  0
 11 60  1  0
 14 61  1  0
 15 62  1  0
 17 63  1  0
 18 64  1  0
 18 65  1  0
 19 66  1  0
 19 67  1  0
 20 68  1  0
 20 69  1  0
 21 70  1  0
 22 71  1  0
 22 72  1  0
 23 73  1  0
 23 74  1  0
 24 75  1  0
 24 76  1  0
 25 77  1  0
 25 78  1  0
 26 79  1  0
 26 80  1  0
 27 81  1  0
 28 82  1  0
 32 83  1  0
 32 84  1  0
 33 85  1  0
 33 86  1  0
 34 87  1  0
 34 88  1  0
 35 89  1  0
 38 90  1  0
 41 91  1  0
 42 92  1  0
 42 93  1  0
 45 94  1  0
 46 95  1  0
 46 96  1  0
 47 97  1  0
 48 98  1  0
 48 99  1  0
 49100  1  0
 49101  1  0
 50102  1  0
M  END
$$$$
